*SPEF "IEEE 1481-1998"
*DESIGN "mac_4x4_wrapper_chip"
*DATE "Tue Jun 23 12:16:12 2026"
*VENDOR "Cadence Design Systems, Inc."
*PROGRAM "Innovus"
*VERSION "21.15-s110_1"
*DESIGN_FLOW "COUPLING C" "PIN_CAP NONE" "NAME_SCOPE LOCAL"
*DIVIDER /
*DELIMITER :
*BUS_DELIMITER []
*T_UNIT 1 NS
*C_UNIT 1 PF
*R_UNIT 1 OHM
*L_UNIT 1 HENRY

// MMMC spef file for corner 'rc_worst'

*NAME_MAP

*1 dut/FE_PHN132_n_15
*2 dut/FE_PHN131_n_4
*3 dut/FE_PHN130_n_10
*4 dut/FE_PHN129_n_16
*5 dut/FE_PHN128_n_9
*6 dut/FE_PHN127_n_14
*7 dut/FE_PHN126_n_7
*8 dut/FE_PHN125_n_1
*9 dut/FE_PHN124_n_12
*10 dut/FE_PHN123_n_2
*11 dut/FE_PHN122_n_8
*12 dut/FE_PHN121_n_3
*13 dut/FE_PHN120_n_89
*14 dut/FE_PHN119_n_87
*15 dut/FE_PHN118_n_94
*16 dut/FE_PHN117_n_64
*17 dut/FE_PHN116_n_93
*18 dut/FE_PHN115_n_51
*19 dut/FE_PHN114_n_11
*20 dut/FE_PHN113_n_13
*21 dut/FE_PHN112_enable_s1
*22 FE_PHN111_b_pad_3
*23 FE_PHN110_b_pad_0
*24 FE_PHN109_b_pad_2
*25 FE_PHN108_enable_pad
*26 FE_PHN107_b_pad_1
*27 FE_PHN106_a_pad_0
*28 FE_PHN105_a_pad_3
*29 FE_PHN104_a_pad_1
*30 FE_PHN103_a_pad_2
*31 dut/FE_PHN102_mac_out_pad_3
*32 dut/FE_PHN101_mac_out_pad_2
*33 dut/FE_PHN100_a_reg_3
*34 dut/FE_PHN99_a_reg_2
*35 dut/FE_PHN98_b_reg_3
*36 dut/FE_PHN97_b_reg_2
*37 dut/FE_PHN96_mult_reg_4
*38 dut/FE_PHN95_mult_reg_3
*39 dut/FE_PHN94_mult_reg_2
*40 dut/FE_PHN93_n_2
*41 dut/FE_PHN92_n_3
*42 dut/FE_PHN91_n_12
*43 dut/FE_PHN90_n_5
*44 dut/FE_PHN89_n_8
*45 dut/FE_PHN88_n_1
*46 dut/FE_PHN87_n_84
*47 dut/FE_PHN86_n_87
*48 dut/FE_PHN85_n_6
*49 dut/FE_PHN84_n_14
*50 dut/FE_PHN83_n_89
*51 dut/FE_PHN82_n_9
*52 dut/FE_PHN81_n_16
*53 dut/FE_PHN80_n_7
*54 dut/FE_PHN79_n_93
*55 dut/FE_PHN78_n_79
*56 dut/FE_PHN77_n_94
*57 dut/FE_PHN76_n_15
*58 dut/FE_PHN75_n_4
*59 dut/FE_PHN74_n_10
*60 dut/FE_PHN73_a_pad_1
*61 dut/FE_PHN72_enable_pad
*62 dut/FE_PHN71_b_pad_1
*63 dut/FE_PHN70_b_pad_0
*64 dut/FE_PHN69_a_pad_3
*65 dut/FE_PHN68_a_pad_2
*66 dut/FE_PHN67_a_pad_0
*67 dut/FE_PHN66_b_pad_3
*68 dut/FE_PHN65_b_pad_2
*69 dut/FE_PHN64_enable_s1
*70 dut/FE_PHN63_mult_reg_7
*71 dut/FE_PHN62_n_0
*72 dut/FE_PHN61_mult_reg_1
*73 dut/FE_PHN60_mac_out_pad_0
*74 dut/FE_PHN59_mac_out_pad_1
*75 dut/FE_PHN58_enable_s2
*76 dut/FE_PHN57_mult_reg_0
*77 dut/FE_PHN56_a_reg_1
*78 dut/FE_PHN55_a_reg_0
*79 dut/FE_PHN54_b_reg_1
*80 dut/FE_PHN53_b_reg_0
*81 dut/FE_PHN52_n_40
*82 dut/FE_PHN51_n_42
*83 dut/FE_PHN50_n_41
*84 dut/FE_PHN49_n_37
*85 dut/FE_PHN48_n_39
*86 dut/FE_PHN47_n_43
*87 dut/FE_PHN46_n_57
*88 dut/FE_PHN45_n_38
*89 dut/FE_PHN44_n_88
*90 dut/FE_PHN43_n_23
*91 dut/FE_PHN42_n_92
*92 dut/FE_PHN41_n_85
*93 dut/FE_PHN40_n_27
*94 dut/FE_PHN39_n_29
*95 dut/FE_PHN38_n_35
*96 dut/FE_PHN37_n_36
*97 dut/FE_PHN36_n_79
*98 dut/FE_PHN35_n_28
*99 dut/FE_PHN34_n_22
*100 dut/FE_PHN33_n_31
*101 dut/FE_PHN32_n_25
*102 dut/FE_PHN31_n_21
*103 dut/FE_PHN30_n_94
*104 dut/FE_PHN29_n_24
*105 dut/FE_PHN28_n_93
*106 dut/FE_PHN27_n_18
*107 dut/FE_PHN26_n_30
*108 dut/FE_PHN25_n_20
*109 dut/FE_PHN24_n_19
*110 dut/FE_PHN23_n_17
*111 dut/FE_PHN22_mult_reg_0
*112 dut/FE_PHN21_mult_reg_1
*113 dut/FE_PHN20_mac_out_pad_0
*114 dut/FE_PHN19_mac_out_pad_1
*115 dut/FE_PHN18_enable_s2
*116 dut/FE_PHN17_n_0
*117 dut/FE_PHN16_a_reg_0
*118 dut/FE_PHN15_a_reg_1
*119 dut/FE_PHN14_b_reg_0
*120 dut/FE_PHN13_b_reg_1
*121 FE_PHN12_rst_pad
*122 FE_OFN13_mac_out_pad_15
*123 FE_OFN12_mac_out_pad_14
*124 dut/FE_OFN11_mac_out_pad_4
*125 FE_OFN10_mac_out_pad_5
*126 FE_OFN9_mac_out_pad_6
*127 FE_OFN8_mac_out_pad_7
*128 FE_OFN7_mac_out_pad_8
*129 FE_OFN6_mac_out_pad_9
*130 FE_OFN5_mac_out_pad_10
*131 FE_OFN4_mac_out_pad_11
*132 FE_OFN3_mac_out_pad_12
*133 FE_OFN2_mac_out_pad_13
*134 clk
*135 rst
*136 enable
*137 a[3]
*138 a[2]
*139 a[1]
*140 a[0]
*141 b[3]
*142 b[2]
*143 b[1]
*144 b[0]
*145 mac_out[15]
*146 mac_out[14]
*147 mac_out[13]
*148 mac_out[12]
*149 mac_out[11]
*150 mac_out[10]
*151 mac_out[9]
*152 mac_out[8]
*153 mac_out[7]
*154 mac_out[6]
*155 mac_out[5]
*156 mac_out[4]
*157 mac_out[3]
*158 mac_out[2]
*159 mac_out[1]
*160 mac_out[0]
*161 a_pad[3]
*162 a_pad[2]
*163 a_pad[1]
*164 a_pad[0]
*165 b_pad[3]
*166 b_pad[2]
*167 b_pad[1]
*168 b_pad[0]
*169 mac_out_pad[15]
*170 mac_out_pad[14]
*171 mac_out_pad[13]
*172 mac_out_pad[12]
*173 mac_out_pad[11]
*174 mac_out_pad[10]
*175 mac_out_pad[9]
*176 mac_out_pad[8]
*177 mac_out_pad[7]
*178 mac_out_pad[6]
*179 mac_out_pad[5]
*180 mac_out_pad[4]
*181 mac_out_pad[3]
*182 mac_out_pad[2]
*183 mac_out_pad[1]
*184 mac_out_pad[0]
*185 clk_buf
*186 clk_pad
*187 enable_pad
*188 rst_pad
*189 dut/mult_reg[7]
*190 dut/mult_reg[6]
*191 dut/mult_reg[5]
*192 dut/mult_reg[4]
*193 dut/mult_reg[3]
*194 dut/mult_reg[2]
*195 dut/mult_reg[1]
*196 dut/mult_reg[0]
*197 dut/a_reg[3]
*198 dut/a_reg[2]
*199 dut/a_reg[1]
*200 dut/a_reg[0]
*201 dut/b_reg[3]
*202 dut/b_reg[2]
*203 dut/b_reg[1]
*204 dut/b_reg[0]
*205 dut/add_89_32_n_2
*206 dut/add_89_32_n_4
*207 dut/add_89_32_n_6
*208 dut/add_89_32_n_8
*209 dut/add_89_32_n_10
*210 dut/add_89_32_n_12
*211 dut/add_89_32_n_14
*212 dut/add_89_32_n_16
*213 dut/add_89_32_n_18
*214 dut/add_89_32_n_20
*215 dut/add_89_32_n_22
*216 dut/add_89_32_n_24
*217 dut/add_89_32_n_26
*218 dut/add_89_32_n_28
*219 dut/add_89_32_n_31
*220 dut/enable_s1
*221 dut/enable_s2
*222 dut/n_0
*223 dut/n_1
*224 dut/n_2
*225 dut/n_3
*226 dut/n_4
*227 dut/n_5
*228 dut/n_6
*229 dut/n_7
*230 dut/n_8
*231 dut/n_9
*232 dut/n_10
*233 dut/n_11
*234 dut/n_12
*235 dut/n_13
*236 dut/n_14
*237 dut/n_15
*238 dut/n_16
*239 dut/n_17
*240 dut/n_18
*241 dut/n_19
*242 dut/n_20
*243 dut/n_21
*244 dut/n_22
*245 dut/n_23
*246 dut/n_24
*247 dut/n_25
*248 dut/n_26
*249 dut/n_27
*250 dut/n_28
*251 dut/n_29
*252 dut/n_30
*253 dut/n_31
*254 dut/n_32
*255 dut/n_33
*256 dut/n_34
*257 dut/n_35
*258 dut/n_36
*259 dut/n_37
*260 dut/n_38
*261 dut/n_39
*262 dut/n_40
*263 dut/n_41
*264 dut/n_42
*265 dut/n_43
*266 dut/n_44
*267 dut/n_45
*268 dut/n_46
*269 dut/n_47
*270 dut/n_48
*271 dut/n_49
*272 dut/n_50
*273 dut/n_51
*274 dut/n_52
*275 dut/n_53
*276 dut/n_54
*277 dut/n_55
*278 dut/n_56
*279 dut/n_57
*280 dut/n_58
*281 dut/n_59
*282 dut/n_60
*283 dut/n_61
*284 dut/n_62
*285 dut/n_63
*286 dut/n_64
*287 dut/n_65
*288 dut/n_66
*289 dut/n_67
*290 dut/n_68
*291 dut/n_69
*292 dut/n_70
*293 dut/n_71
*294 dut/n_72
*295 dut/n_73
*296 dut/n_74
*297 dut/n_75
*298 dut/n_76
*299 dut/n_77
*300 dut/n_78
*301 dut/n_79
*302 dut/n_80
*303 dut/n_81
*304 dut/n_82
*305 dut/n_83
*306 dut/n_84
*307 dut/n_85
*308 dut/n_86
*309 dut/n_87
*310 dut/n_88
*311 dut/n_89
*312 dut/n_90
*313 dut/n_91
*314 dut/n_92
*315 dut/n_93
*316 dut/n_94
*317 dut/n_105
*318 dut/n_106
*319 dut/n_107
*320 dut/n_108
*321 dut/n_109
*322 dut/n_110
*323 dut/n_111
*324 dut/n_112
*325 dut/n_113
*326 dut/n_114
*327 dut/n_115
*328 dut/n_116
*329 dut/n_117
*330 dut/n_118
*331 dut/n_119
*332 dut/n_122
*333 FE_PHC111_b_pad_3
*334 FE_PHC110_b_pad_0
*335 FE_PHC109_b_pad_2
*336 FE_PHC108_enable_pad
*337 FE_PHC107_b_pad_1
*338 FE_PHC106_a_pad_0
*339 FE_PHC105_a_pad_3
*340 FE_PHC104_a_pad_1
*341 FE_PHC103_a_pad_2
*342 FE_PHC12_rst_pad
*343 FE_OFC13_mac_out_pad_15
*344 FE_OFC12_mac_out_pad_14
*345 FE_OFC10_mac_out_pad_5
*346 FE_OFC9_mac_out_pad_6
*347 FE_OFC8_mac_out_pad_7
*348 FE_OFC7_mac_out_pad_8
*349 FE_OFC6_mac_out_pad_9
*350 FE_OFC5_mac_out_pad_10
*351 FE_OFC4_mac_out_pad_11
*352 FE_OFC3_mac_out_pad_12
*353 FE_OFC2_mac_out_pad_13
*354 dut/FE_PHC132_n_15
*355 dut/FE_PHC131_n_4
*356 dut/FE_PHC130_n_10
*357 dut/FE_PHC129_n_16
*358 dut/FE_PHC128_n_9
*359 dut/FE_PHC127_n_14
*360 dut/FE_PHC126_n_7
*361 dut/FE_PHC125_n_1
*362 dut/FE_PHC124_n_12
*363 dut/FE_PHC123_n_2
*364 dut/FE_PHC122_n_8
*365 dut/FE_PHC121_n_3
*366 dut/FE_PHC120_n_89
*367 dut/FE_PHC119_n_87
*368 dut/FE_PHC118_n_94
*369 dut/FE_PHC117_n_64
*370 dut/FE_PHC116_n_93
*371 dut/FE_PHC115_n_51
*372 dut/FE_PHC114_n_11
*373 dut/FE_PHC113_n_13
*374 dut/FE_PHC112_enable_s1
*375 dut/FE_PHC102_mac_out_pad_3
*376 dut/FE_PHC101_mac_out_pad_2
*377 dut/FE_PHC100_a_reg_3
*378 dut/FE_PHC99_a_reg_2
*379 dut/FE_PHC98_b_reg_3
*380 dut/FE_PHC97_b_reg_2
*381 dut/FE_PHC96_mult_reg_4
*382 dut/FE_PHC95_mult_reg_3
*383 dut/FE_PHC94_mult_reg_2
*384 dut/FE_PHC93_n_2
*385 dut/FE_PHC92_n_3
*386 dut/FE_PHC91_n_12
*387 dut/FE_PHC90_n_5
*388 dut/FE_PHC89_n_8
*389 dut/FE_PHC88_n_1
*390 dut/FE_PHC87_n_84
*391 dut/FE_PHC86_n_87
*392 dut/FE_PHC85_n_6
*393 dut/FE_PHC84_n_14
*394 dut/FE_PHC83_n_89
*395 dut/FE_PHC82_n_9
*396 dut/FE_PHC81_n_16
*397 dut/FE_PHC80_n_7
*398 dut/FE_PHC79_n_93
*399 dut/FE_PHC78_n_79
*400 dut/FE_PHC77_n_94
*401 dut/FE_PHC76_n_15
*402 dut/FE_PHC75_n_4
*403 dut/FE_PHC74_n_10
*404 dut/FE_PHC73_a_pad_1
*405 dut/FE_PHC72_enable_pad
*406 dut/FE_PHC71_b_pad_1
*407 dut/FE_PHC70_b_pad_0
*408 dut/FE_PHC69_a_pad_3
*409 dut/FE_PHC68_a_pad_2
*410 dut/FE_PHC67_a_pad_0
*411 dut/FE_PHC66_b_pad_3
*412 dut/FE_PHC65_b_pad_2
*413 dut/FE_PHC64_enable_s1
*414 dut/FE_PHC63_mult_reg_7
*415 dut/FE_PHC62_n_0
*416 dut/FE_PHC61_mult_reg_1
*417 dut/FE_PHC60_mac_out_pad_0
*418 dut/FE_PHC59_mac_out_pad_1
*419 dut/FE_PHC58_enable_s2
*420 dut/FE_PHC57_mult_reg_0
*421 dut/FE_PHC56_a_reg_1
*422 dut/FE_PHC55_a_reg_0
*423 dut/FE_PHC54_b_reg_1
*424 dut/FE_PHC53_b_reg_0
*425 dut/FE_PHC52_n_40
*426 dut/FE_PHC51_n_42
*427 dut/FE_PHC50_n_41
*428 dut/FE_PHC49_n_37
*429 dut/FE_PHC48_n_39
*430 dut/FE_PHC47_n_43
*431 dut/FE_PHC46_n_57
*432 dut/FE_PHC45_n_38
*433 dut/FE_PHC44_n_88
*434 dut/FE_PHC43_n_23
*435 dut/FE_PHC42_n_92
*436 dut/FE_PHC41_n_85
*437 dut/FE_PHC40_n_27
*438 dut/FE_PHC39_n_29
*439 dut/FE_PHC38_n_35
*440 dut/FE_PHC37_n_36
*441 dut/FE_PHC36_n_79
*442 dut/FE_PHC35_n_28
*443 dut/FE_PHC34_n_22
*444 dut/FE_PHC33_n_31
*445 dut/FE_PHC32_n_25
*446 dut/FE_PHC31_n_21
*447 dut/FE_PHC30_n_94
*448 dut/FE_PHC29_n_24
*449 dut/FE_PHC28_n_93
*450 dut/FE_PHC27_n_18
*451 dut/FE_PHC26_n_30
*452 dut/FE_PHC25_n_20
*453 dut/FE_PHC24_n_19
*454 dut/FE_PHC23_n_17
*455 dut/FE_PHC22_mult_reg_0
*456 dut/FE_PHC21_mult_reg_1
*457 dut/FE_PHC20_mac_out_pad_0
*458 dut/FE_PHC19_mac_out_pad_1
*459 dut/FE_PHC18_enable_s2
*460 dut/FE_PHC17_n_0
*461 dut/FE_PHC16_a_reg_0
*462 dut/FE_PHC15_a_reg_1
*463 dut/FE_PHC14_b_reg_0
*464 dut/FE_PHC13_b_reg_1
*465 dut/FE_OFC11_mac_out_pad_4
*466 dut/mult_reg_reg\[7\]
*467 dut/mult_reg_reg\[6\]
*468 dut/g1149__2398
*469 dut/g1150__5107
*470 dut/mult_reg_reg\[5\]
*471 dut/g1152__6260
*472 dut/g1153__4319
*473 dut/g1154__8428
*474 dut/mult_reg_reg\[4\]
*475 dut/g1156__5526
*476 dut/g1157__6783
*477 dut/mult_reg_reg\[3\]
*478 dut/g1159__3680
*479 dut/g1160__1617
*480 dut/mult_reg_reg\[2\]
*481 dut/g1162__2802
*482 dut/g1163__1705
*483 dut/g1164__5122
*484 dut/g1165__8246
*485 dut/g1166__7098
*486 dut/g1167__6131
*487 dut/g1168__1881
*488 dut/g1169__5115
*489 dut/g1170__7482
*490 dut/g1171__4733
*491 dut/mult_reg_reg\[1\]
*492 dut/g1173__6161
*493 dut/g1174__9315
*494 dut/g1175__9945
*495 dut/mult_reg_reg\[0\]
*496 dut/g1177__2883
*497 dut/g1179__2346
*498 dut/g1180__1666
*499 dut/g1181__7410
*500 dut/g1182__6417
*501 dut/g1183__5477
*502 dut/g1184__2398
*503 dut/g1185__5107
*504 dut/g1186__6260
*505 dut/g1187__4319
*506 dut/g1188__8428
*507 dut/g1189__5526
*508 dut/g1191__6783
*509 dut/g1192__3680
*510 dut/g1193__1617
*511 dut/g1194__2802
*512 dut/g1195__1705
*513 dut/g1196__5122
*514 dut/enable_s1_reg
*515 dut/b_reg_reg\[1\]
*516 dut/a_reg_reg\[1\]
*517 dut/b_reg_reg\[3\]
*518 dut/a_reg_reg\[0\]
*519 dut/a_reg_reg\[3\]
*520 dut/b_reg_reg\[0\]
*521 dut/g1209__8246
*522 dut/g1210__7098
*523 dut/g1211__6131
*524 dut/g1212__1881
*525 dut/g1213__5115
*526 dut/g1214__7482
*527 dut/g1215__4733
*528 dut/g1216__6161
*529 dut/g1217__9315
*530 dut/g1218
*531 dut/g2__9945
*532 dut/acc_reg_reg\[7\]
*533 dut/acc_reg_reg\[1\]
*534 dut/acc_reg_reg\[5\]
*535 dut/acc_reg_reg\[6\]
*536 dut/acc_reg_reg\[0\]
*537 dut/acc_reg_reg\[8\]
*538 dut/acc_reg_reg\[9\]
*539 dut/acc_reg_reg\[10\]
*540 dut/acc_reg_reg\[14\]
*541 dut/acc_reg_reg\[11\]
*542 dut/acc_reg_reg\[12\]
*543 dut/acc_reg_reg\[13\]
*544 dut/acc_reg_reg\[2\]
*545 dut/acc_reg_reg\[3\]
*546 dut/acc_reg_reg\[15\]
*547 dut/acc_reg_reg\[4\]
*548 dut/g662__2883
*549 dut/g663__2346
*550 dut/g664__1666
*551 dut/g665__7410
*552 dut/g666__6417
*553 dut/g667__5477
*554 dut/g668__2398
*555 dut/g669__5107
*556 dut/g670__6260
*557 dut/g671__4319
*558 dut/g672__8428
*559 dut/g673__5526
*560 dut/g674__6783
*561 dut/g675__3680
*562 dut/g676__1617
*563 dut/g677__2802
*564 dut/g678__1705
*565 dut/g679__5122
*566 dut/g680__8246
*567 dut/g681__7098
*568 dut/g682__6131
*569 dut/g683__1881
*570 dut/g684__5115
*571 dut/g685__7482
*572 dut/g686__4733
*573 dut/g687__6161
*574 dut/g688__9315
*575 dut/g689__9945
*576 dut/g690__2883
*577 dut/g691__2346
*578 dut/g692__1666
*579 dut/g693__7410
*580 dut/add_89_32_g369__5477
*581 dut/add_89_32_g370__2398
*582 dut/add_89_32_g371__5107
*583 dut/add_89_32_g372__6260
*584 dut/add_89_32_g373__4319
*585 dut/add_89_32_g374__8428
*586 dut/add_89_32_g375__5526
*587 dut/add_89_32_g376__6783
*588 dut/add_89_32_g377__3680
*589 dut/add_89_32_g378__1617
*590 dut/add_89_32_g379__2802
*591 dut/add_89_32_g380__1705
*592 dut/add_89_32_g381__5122
*593 dut/add_89_32_g382__8246
*594 dut/add_89_32_g383__7098
*595 dut/g2
*596 dut/b_reg_reg\[2\]
*597 dut/a_reg_reg\[2\]
*598 dut/enable_s2_reg
*599 pc3c01_clk_buf
*600 pc3d01_a0
*601 pc3d01_a1
*602 pc3d01_a2
*603 pc3d01_a3
*604 pc3d01_b0
*605 pc3d01_b1
*606 pc3d01_b2
*607 pc3d01_b3
*608 pc3d01_clk
*609 pc3d01_enable
*610 pc3d01_rst
*611 pc3o01_mac_out0
*612 pc3o01_mac_out1
*613 pc3o01_mac_out2
*614 pc3o01_mac_out3
*615 pc3o01_mac_out4
*616 pc3o01_mac_out5
*617 pc3o01_mac_out6
*618 pc3o01_mac_out7
*619 pc3o01_mac_out8
*620 pc3o01_mac_out9
*621 pc3o01_mac_out10
*622 pc3o01_mac_out11
*623 pc3o01_mac_out12
*624 pc3o01_mac_out13
*625 pc3o01_mac_out14
*626 pc3o01_mac_out15
*627 pc3o01_dummy1
*628 pc3o01_dummy2
*629 pc3o01_dummy3
*630 pc3o01_dummy4
*631 pvdi_VDD_0
*632 pv0i_VSS_0
*633 pvda_VDDO_0
*634 pv0a_VSSO_0
*635 pvdi_VDD_1
*636 pv0i_VSS_1
*637 pvda_VDDO_1
*638 pv0a_VSSO_1
*639 pvdi_VDD_2
*640 pv0i_VSS_2
*641 pvda_VDDO_2
*642 pv0a_VSSO_2
*643 pvdi_VDD_3
*644 pv0i_VSS_3
*645 pvda_VDDO_3
*646 pv0a_VSSO_3


*PORTS

*134 I *C 249.79 339.89
*135 I *C 249.79 687.165
*136 I *C 249.79 571.41
*137 I *C 687.165 1690.05
*138 I *C 571.41 1690.05
*139 I *C 455.65 1690.05
*140 I *C 339.89 1690.05
*141 I *C 1613.21 1690.05
*142 I *C 1497.45 1690.05
*143 I *C 1381.69 1690.05
*144 I *C 1265.94 1690.05
*145 O *C 675.345 249.79
*146 O *C 559.59 249.79
*147 O *C 443.83 249.79
*148 O *C 328.07 249.79
*149 O *C 1690.05 1601.39
*150 O *C 1690.05 1485.63
*151 O *C 1690.05 1369.88
*152 O *C 1690.05 1254.12
*153 O *C 1690.05 675.345
*154 O *C 1690.05 559.59
*155 O *C 1690.05 443.83
*156 O *C 1690.05 328.07
*157 O *C 249.79 1611.77
*158 O *C 249.79 1496.01
*159 O *C 249.79 1380.26
*160 O *C 249.79 1264.5


*D_NET *1 0.00181938

*CONN
*I *354:Z O *C 652.36 1215.4399 *L 0 *D dl04d1
*I *401:I I *C 644.52 1208.72 *L 0.00438 *D dl04d1

*CAP
1 *354:Z 7.09482e-05
2 *401:I 7.09482e-05
3 *1:2 0.000280761
4 *1:3 0.000280761
5 *1:4 7.82563e-05
6 *1:5 8.73402e-05
7 *1:6 0.00026979
8 *1:7 0.00038284
9 *1:8 5.95276e-05
10 *1:9 0.00017867
11 *1:10 5.95276e-05

*RES
1 *1:10 *354:Z 6
2 *1:8 *1:10 0.160034
3 *1:9 *1:8 6
4 *1:7 *1:9 0.754303
5 *1:6 *1:7 1.16574
6 *1:5 *1:6 0.160034
7 *1:4 *1:5 0.319977
8 *1:2 *1:4 6
9 *1:3 *1:2 1.11996
10 *401:I *1:3 6
*END

*D_NET *2 0.00242943

*CONN
*I *355:Z O *C 595.24 1103.4399 *L 0 *D dl04d1
*I *402:I I *C 583.48 1096.72 *L 0.00438 *D dl04d1

*CAP
1 *355:Z 7.09508e-05
2 *402:I 7.09508e-05
3 *2:2 0.000207065
4 *2:3 0.000207065
5 *2:4 0.00074659
6 *2:5 0.00074659
7 *2:6 0.000190114
8 *2:7 0.000190114

*RES
1 *2:2 *355:Z 6
2 *2:3 *2:2 0.640045
3 *2:4 *2:3 6
4 *2:5 *2:4 3.35999
5 *2:7 *2:5 6
6 *2:6 *2:7 0.799988
7 *402:I *2:6 6
*END

*D_NET *3 0.00413741

*CONN
*I *356:Z O *C 666.36 1297.2 *L 0 *D dl04d1
*I *403:I I *C 656.84 1309.52 *L 0.00438 *D dl04d1

*CAP
1 *356:Z 0.000150743
2 *403:I 7.1885e-05
3 *3:2 0.00011149
4 *3:3 0.000415206
5 *3:4 0.000368772
6 *3:5 0.00047157
7 *3:6 0.00047157
8 *3:7 0.000108259
9 *3:8 9.91783e-05
10 *3:9 0.00032182
11 *3:10 0.00032182
12 *3:11 0.000136927
13 *3:12 0.00010297
14 *3:13 0.000127853
15 *3:14 0.000190341
16 *3:5 *4:2 8.717e-05
17 *3:6 *4:3 8.717e-05
18 *3:7 *4:2 3.693e-05
19 *3:8 *4:3 3.69299942e-05
20 *3:3 *115:72 0.0002094
21 *3:4 *115:73 0.000209400006

*RES
1 *356:Z *3:14 0.779114
2 *3:4 *3:14 6
3 *3:4 *3:3 1.76001
4 *3:12 *3:3 0.319977
5 *3:13 *3:12 6
6 *3:11 *3:13 0.480011
7 *3:11 *3:5 0.160034
8 *3:6 *3:5 2.39996
9 *3:2 *403:I 0.389557
10 *3:7 *3:6 0.160034
11 *3:10 *3:2 6
12 *3:8 *3:7 0.480011
13 *3:9 *3:10 1.28
14 *3:9 *3:8 6
*END

*D_NET *4 0.00217034

*CONN
*I *357:Z O *C 664.68 1305.04 *L 0 *D dl04d1
*I *396:I I *C 650.12 1303.92 *L 0.00438 *D dl04d1

*CAP
1 *357:Z 7.09549e-05
2 *396:I 7.09549e-05
3 *4:2 0.00072634
4 *4:3 0.00072634
5 *4:6 5.65356e-05
6 *4:7 5.65356e-05
7 *4:2 *3:5 8.717e-05
8 *4:3 *3:6 8.717e-05
9 *4:2 *3:7 3.693e-05
10 *4:3 *3:8 3.69299942e-05
11 *4:2 *238:11 1.231e-05
12 *4:3 *238:10 1.231e-05
13 *4:2 *238:6 3.646e-05
14 *4:3 *238:7 3.646e-05
15 *4:2 *238:4 5.847e-05
16 *4:3 *238:5 5.84700046e-05

*RES
1 *4:5 *4:7 0.15802
2 *4:7 *357:Z 6
3 *4:2 *4:7 6
4 *4:3 *4:2 4.15997
5 *4:6 *396:I 6
6 *4:6 *4:3 6
7 *4:4 *4:6 0.15802
*END

*D_NET *5 0.00272243

*CONN
*I *358:Z O *C 635 1308.4 *L 0 *D dl04d1
*I *395:I I *C 627.16 1298.3199 *L 0.00438 *D dl04d1

*CAP
1 *358:Z 7.0948e-05
2 *395:I 7.0948e-05
3 *5:2 0.000375636
4 *5:3 0.000366562
5 *5:4 0.000218081
6 *5:5 0.000227155
7 *5:6 9.91872e-05
8 *5:7 9.91872e-05
9 *5:8 0.00047271
10 *5:9 0.00047271
11 *5:8 *50:2 9.413e-05
12 *5:9 *50:3 9.413e-05
13 *5:4 *50:6 3.052e-05
14 *5:5 *50:5 3.05199945e-05

*RES
1 *5:6 *358:Z 6
2 *5:7 *5:6 0.319977
3 *5:8 *5:7 6
4 *5:3 *395:I 6
5 *5:9 *5:8 2.39996
6 *5:3 *5:2 1.44003
7 *5:4 *5:9 6
8 *5:5 *5:2 0.160034
9 *5:5 *5:4 1.11996
*END

*D_NET *6 0.00219203

*CONN
*I *359:Z O *C 676.44 1271.4399 *L 0 *D dl04d1
*I *393:I I *C 662.44 1270.3199 *L 0.00438 *D dl04d1

*CAP
1 *359:Z 7.09476e-05
2 *393:I 7.09476e-05
3 *6:2 0.000339267
4 *6:3 0.000339267
5 *6:4 0.000111568
6 *6:5 0.000102491
7 *6:8 5.65386e-05
8 *6:9 0.00039085
9 *6:10 5.65386e-05
10 *6:11 0.000381773
11 *6:2 *49:11 3.693e-05
12 *6:3 *49:9 3.693e-05
13 *6:4 *49:7 3.051e-05
14 *6:5 *49:4 3.051e-05
15 *6:2 *49:8 4.386e-05
16 *6:3 *49:6 4.386e-05
17 *6:4 *49:8 2.462e-05
18 *6:5 *49:6 2.46200006e-05

*RES
1 *6:7 *6:10 0.15802
2 *6:10 *359:Z 6
3 *6:11 *6:10 6
4 *6:9 *6:11 1.76001
5 *6:9 *6:2 0.160034
6 *6:3 *6:2 1.76001
7 *6:4 *6:3 0.160034
8 *6:5 *6:4 0.480011
9 *6:8 *393:I 6
10 *6:8 *6:5 6
11 *6:6 *6:8 0.15802
*END

*D_NET *7 0.00234322

*CONN
*I *360:Z O *C 595.24 1073.2 *L 0 *D dl04d1
*I *397:I I *C 583.48 1079.92 *L 0.00438 *D dl04d1

*CAP
1 *360:Z 7.09448e-05
2 *397:I 7.09448e-05
3 *7:3 0.000347065
4 *7:4 0.00072533
5 *7:5 0.000347065
6 *7:6 5.65455e-05
7 *7:7 0.00072533

*RES
1 *7:5 *397:I 6
2 *7:3 *7:5 1.44003
3 *7:4 *7:3 6
4 *7:4 *7:7 3.35999
5 *7:6 *7:7 6
6 *7:6 *360:Z 6
7 *7:2 *7:6 0.15802
*END

*D_NET *8 0.00202677

*CONN
*I *361:Z O *C 624.36 1241.2 *L 0 *D dl04d1
*I *389:I I *C 617.64 1247.92 *L 0.00438 *D dl04d1

*CAP
1 *361:Z 7.09527e-05
2 *389:I 7.09527e-05
3 *8:2 0.000337414
4 *8:3 0.000337414
5 *8:5 0.00037487
6 *8:6 5.6538e-05
7 *8:7 0.00037487
8 *8:7 *121:69 8.009e-05
9 *8:5 *121:70 8.009e-05
10 *8:2 *121:39 0.00012179
11 *8:3 *121:40 0.000121789998

*RES
1 *8:2 *389:I 6
2 *8:3 *8:2 1.44003
3 *8:5 *8:3 6
4 *8:5 *8:7 1.92004
5 *8:6 *8:7 6
6 *8:6 *361:Z 6
7 *8:4 *8:6 0.15802
*END

*D_NET *9 0.00201993

*CONN
*I *362:Z O *C 652.36 1249.04 *L 0 *D dl04d1
*I *386:I I *C 644.52 1242.3199 *L 0.00438 *D dl04d1

*CAP
1 *362:Z 7.09467e-05
2 *386:I 7.09467e-05
3 *9:3 8.32215e-05
4 *9:4 7.41377e-05
5 *9:5 0.000356413
6 *9:6 0.00047854
7 *9:7 0.000191314
8 *9:8 0.000200398
9 *9:9 5.65398e-05
10 *9:10 0.000178667
11 *9:8 *116:54 0.00012208
12 *9:7 *116:55 0.00012208
13 *9:4 *116:80 7.32e-06
14 *9:3 *116:81 7.31999195e-06

*RES
1 *9:7 *386:I 6
2 *9:7 *9:8 1.11996
3 *9:3 *9:8 0.160034
4 *9:3 *9:4 0.319977
5 *9:5 *9:4 6
6 *9:6 *9:10 0.754303
7 *9:5 *9:6 1.64575
8 *9:9 *9:10 6
9 *9:9 *362:Z 6
10 *9:2 *9:9 0.15802
*END

*D_NET *10 0.00222717

*CONN
*I *363:Z O *C 618.76 1263.6 *L 0 *D dl04d1
*I *384:I I *C 608.68 1270.3199 *L 0.00438 *D dl04d1

*CAP
1 *363:Z 7.09504e-05
2 *384:I 7.09504e-05
3 *10:2 0.000105902
4 *10:3 0.000105902
5 *10:4 0.00061326
6 *10:5 0.000219888
7 *10:6 0.000219888
8 *10:7 0.00061326
9 *10:7 *121:73 2.417e-05
10 *10:4 *121:74 2.417e-05
11 *10:6 *121:36 7.941e-05
12 *10:5 *121:37 7.94100022e-05

*RES
1 *10:5 *363:Z 6
2 *10:5 *10:6 1.11996
3 *10:7 *10:6 6
4 *10:2 *384:I 6
5 *10:4 *10:7 2.87997
6 *10:3 *10:2 0.319977
7 *10:3 *10:4 6
*END

*D_NET *11 0.00167752

*CONN
*I *364:Z O *C 620.44 1073.2 *L 0 *D dl04d1
*I *388:I I *C 613.72 1068.72 *L 0.00438 *D dl04d1

*CAP
1 *364:Z 7.09507e-05
2 *388:I 7.09507e-05
3 *11:2 0.000281929
4 *11:3 0.000291009902
5 *11:5 7.306e-05
6 *11:6 0.000251591
7 *11:7 0.000260672
8 *11:8 0.000164948
9 *11:9 5.65412e-05
10 *11:10 0.000155867

*RES
1 *11:5 *388:I 6
2 *11:5 *11:3 0.160034
3 *11:3 *11:2 1.11996
4 *11:6 *11:2 6
5 *11:6 *11:7 1.11996
6 *11:7 *11:8 0.160034
7 *11:8 *11:10 0.640045
8 *11:9 *11:10 6
9 *11:9 *364:Z 6
10 *11:4 *11:9 0.15802
*END

*D_NET *12 0.00223266

*CONN
*I *365:Z O *C 634.44 1073.2 *L 0 *D dl04d1
*I *385:I I *C 627.72 1079.92 *L 0.00438 *D dl04d1

*CAP
1 *365:Z 7.09529e-05
2 *385:I 7.09529e-05
3 *12:2 4.32922e-05
4 *12:3 5.23734e-05
5 *12:4 0.000256
6 *12:5 0.000246919
7 *12:7 0.00047121
8 *12:8 5.65366e-05
9 *12:9 0.00047121
10 *12:2 *225:8 6.08e-06
11 *12:3 *225:7 6.08e-06
12 *12:4 *225:3 0.00024053
13 *12:5 *225:2 0.000240529997

*RES
1 *12:2 *385:I 6
2 *12:3 *12:2 0.0800171
3 *12:4 *12:3 0.160034
4 *12:5 *12:4 1.44003
5 *12:7 *12:5 6
6 *12:7 *12:9 2.07999
7 *12:8 *12:9 6
8 *12:8 *365:Z 6
9 *12:6 *12:8 0.15802
*END

*D_NET *13 0.00215189

*CONN
*I *366:Z O *C 642.84 1305.04 *L 0 *D dl04d1
*I *394:I I *C 628.84 1303.92 *L 0.00438 *D dl04d1

*CAP
1 *366:Z 7.09456e-05
2 *394:I 7.09456e-05
3 *13:3 6.221e-05
4 *13:4 0.00091452
5 *13:5 6.221e-05
6 *13:6 5.65304e-05
7 *13:7 0.00091452

*RES
1 *13:5 *394:I 6
2 *13:3 *13:5 0.160034
3 *13:4 *13:3 6
4 *13:4 *13:7 4.00003
5 *13:6 *13:7 6
6 *13:6 *366:Z 6
7 *13:2 *13:6 0.15802
*END

*D_NET *14 0.00230308

*CONN
*I *367:Z O *C 627.72 1308.4 *L 0 *D dl04d1
*I *391:I I *C 617.08 1303.92 *L 0.00438 *D dl04d1

*CAP
1 *367:Z 7.09511e-05
2 *391:I 7.09511e-05
3 *14:2 0.00034558
4 *14:3 0.00034558
5 *14:4 0.00011252
6 *14:5 0.000103439
7 *14:6 0.000160311
8 *14:7 0.000160311
9 *14:8 0.00015923
10 *14:9 0.00016831
11 *14:10 0.00019292
12 *14:11 0.00019292
13 *14:2 *47:7 6.578e-05
14 *14:3 *47:5 6.578e-05
15 *14:4 *47:7 3.693e-05
16 *14:5 *47:5 3.693e-05
17 *14:6 *47:4 7.32e-06
18 *14:7 *47:3 7.32000609e-06

*RES
1 *14:11 *367:Z 6
2 *14:10 *14:11 0.640045
3 *14:8 *14:10 6
4 *14:9 *14:8 0.799988
5 *14:9 *14:2 0.160034
6 *14:3 *14:2 1.76001
7 *14:4 *14:3 0.160034
8 *14:5 *14:4 0.480011
9 *14:6 *14:5 6
10 *14:7 *14:6 0.640045
11 *391:I *14:7 6
*END

*D_NET *15 0.00203703

*CONN
*I *368:Z O *C 654.04 1263.6 *L 0 *D dl04d1
*I *400:I I *C 640.04 1264.72 *L 0.00438 *D dl04d1

*CAP
1 *368:Z 7.09517e-05
2 *400:I 7.09517e-05
3 *15:2 0.000191901
4 *15:3 0.000182818
5 *15:4 0.000351832422
6 *15:5 0.000351832422
7 *15:8 5.65423e-05
8 *15:9 0.000110266
9 *15:10 0.000319019
10 *15:11 5.65423e-05
11 *15:12 0.000274374

*RES
1 *15:7 *15:11 0.15802
2 *15:11 *368:Z 6
3 *15:12 *15:11 6
4 *15:10 *15:12 1.23431
5 *15:9 *15:10 0.365753
6 *15:4 *15:9 0.160034
7 *15:5 *15:4 1.59998
8 *15:5 *15:2 0.160034
9 *15:3 *15:2 0.799988
10 *15:8 *400:I 6
11 *15:8 *15:3 6
12 *15:6 *15:8 0.15802
*END

*D_NET *16 0.001539

*CONN
*I *369:Z O *C 585.72 1327.4399 *L 0 *D dl04d1
*I *491:D I *C 576.2 1326.3199 *L 0.0022 *D dfnrq1

*CAP
1 *369:Z 7.0949e-05
2 *491:D 7.0949e-05
3 *16:3 5.95326e-05
4 *16:4 0.00061075
5 *16:5 5.95326e-05
6 *16:6 5.65411e-05
7 *16:7 0.00061075

*RES
1 *16:5 *491:D 6
2 *16:3 *16:5 0.160034
3 *16:4 *16:3 6
4 *16:4 *16:7 2.72003
5 *16:6 *16:7 6
6 *16:6 *369:Z 6
7 *16:2 *16:6 0.15802
*END

*D_NET *17 0.00190665

*CONN
*I *370:Z O *C 656.28 1282.64 *L 0 *D dl04d1
*I *398:I I *C 642.28 1281.52 *L 0.00438 *D dl04d1

*CAP
1 *370:Z 7.0951e-05
2 *398:I 7.0951e-05
3 *17:4 5.65418e-05
4 *17:5 0.000452115
5 *17:6 0.00079756
6 *17:7 5.65418e-05
7 *17:8 0.000401987

*RES
1 *17:3 *17:7 0.15802
2 *17:7 *370:Z 6
3 *17:8 *17:7 6
4 *17:6 *17:8 1.87427
5 *17:5 *17:6 2.12567
6 *17:4 *398:I 6
7 *17:4 *17:5 6
8 *17:2 *17:4 0.15802
*END

*D_NET *18 0.00757585

*CONN
*I *371:Z O *C 599.72 1330.8 *L 0 *D dl04d1
*I *497:A1 I *C 590.76 1286.5601 *L 0.0051 *D nr02d1
*I *500:A1 I *C 590.76 1326.3199 *L 0.00373 *D nd12d1

*CAP
1 *371:Z 7.09524e-05
2 *497:A1 7.09524e-05
3 *500:A1 7.09524e-05
4 *18:3 0.000393539
5 *18:4 0.000326706
6 *18:5 0.000128516
7 *18:6 0.00011943
8 *18:7 0.000720688
9 *18:8 0.000720688
10 *18:9 0.000158515
11 *18:10 0.000158515
12 *18:11 0.000308264
13 *18:12 0.000308264
14 *18:13 0.00080573
15 *18:14 0.00080573
16 *18:15 0.000271945
17 *18:16 0.000271945
18 *18:17 0.000324579
19 *18:18 0.000324579
20 *18:19 9.8222e-05
21 *18:20 0.000558571
22 *18:21 0.000558571

*RES
1 *18:15 *371:Z 6
2 *18:16 *18:15 0.960022
3 *18:21 *18:16 6
4 *18:20 *18:21 2.56
5 *18:19 *18:20 6
6 *18:3 *500:A1 6
7 *18:3 *18:19 0.319977
8 *18:4 *18:3 1.28
9 *18:11 *18:4 0.160034
10 *18:12 *18:11 1.44003
11 *18:12 *18:13 0.160034
12 *18:14 *18:13 3.35999
13 *18:9 *18:14 0.160034
14 *18:10 *18:9 0.640045
15 *18:10 *18:7 0.160034
16 *18:6 *497:A1 6
17 *18:8 *18:7 2.72003
18 *18:6 *18:5 0.480011
19 *18:18 *18:8 0.160034
20 *18:17 *18:5 0.160034
21 *18:17 *18:18 1.28
*END

*D_NET *19 0.00183956

*CONN
*I *372:Z O *C 561.08 1293.84 *L 0 *D dl04d1
*I *554:A1 I *C 557.16 1297.76 *L 0.0051 *D nr02d1

*CAP
1 *372:Z 7.09465e-05
2 *554:A1 7.09465e-05
3 *19:2 0.00048947
4 *19:3 0.000228001
5 *19:4 0.000138472
6 *19:5 9.20459e-05
7 *19:6 0.000371881
8 *19:5 *116:19 1.288e-05
9 *19:4 *116:20 1.288e-05
10 *19:3 *116:19 0.00017602
11 *19:2 *116:20 0.000176020004

*RES
1 *19:5 *554:A1 6
2 *19:4 *19:5 0.319977
3 *19:3 *19:4 0.319977
4 *19:6 *372:Z 6
5 *19:2 *19:3 0.960022
6 *19:2 *19:6 1.44003
*END

*D_NET *20 0.00143276

*CONN
*I *373:Z O *C 558.28 1274.8 *L 0 *D dl04d1
*I *548:A1 I *C 549.88 1275.36 *L 0.0051 *D nr02d1

*CAP
1 *373:Z 7.09483e-05
2 *548:A1 7.09483e-05
3 *20:3 9.07923e-05
4 *20:4 0.00037959
5 *20:5 9.07923e-05
6 *20:6 5.65374e-05
7 *20:7 0.00037959
8 *20:7 *235:2 0.00014678
9 *20:4 *235:3 0.000146779997

*RES
1 *20:5 *548:A1 6
2 *20:3 *20:5 0.319977
3 *20:4 *20:3 6
4 *20:4 *20:7 2.39996
5 *20:6 *20:7 6
6 *20:6 *373:Z 6
7 *20:2 *20:6 0.0400085
*END

*D_NET *21 0.00101716

*CONN
*I *374:Z O *C 589.08 1263.6 *L 0 *D dl04d1
*I *413:I I *C 591.88 1264.72 *L 0.00438 *D dl04d1

*CAP
1 *374:Z 7.09504e-05
2 *413:I 7.09504e-05
3 *21:2 0.000193619
4 *21:3 0.0002027
5 *21:5 5.65401e-05
6 *21:6 7.30598e-05
7 *21:7 8.39101e-05
8 *21:8 8.39101e-05
9 *21:2 *69:7 9.076e-05
10 *21:3 *69:5 9.0760003e-05

*RES
1 *21:7 *413:I 6
2 *21:7 *21:8 0.160034
3 *21:2 *21:8 6
4 *21:3 *21:2 0.799988
5 *21:6 *21:3 0.160034
6 *21:5 *21:6 6
7 *21:5 *374:Z 6
8 *21:4 *21:5 0.15802
*END

*D_NET *22 0.0992861

*CONN
*I *333:Z O *C 1489.5601 1330.8 *L 0 *D dl04d1
*I *411:I I *C 651.24 1331.92 *L 0.00438 *D dl04d1

*CAP
1 *333:Z 7.10237e-05
2 *411:I 7.10237e-05
3 *22:2 0.000281669
4 *22:3 0.000281669
5 *22:4 9.11182e-05
6 *22:5 0.000100472
7 *22:6 0.02270505
8 *22:7 0.0204101
9 *22:8 0.0186505
10 *22:9 0.00957018
11 *22:11 5.95906e-05
12 *22:12 5.95906e-05
13 *22:13 0.013666
14 *22:14 5.64725e-05
15 *22:15 0.00230047
16 *22:6 *174:20 0.00012008
17 *22:7 *174:11 0.00012008
18 *22:7 *174:11 0.00236404
19 *22:8 *174:10 0.00236404
20 *22:7 *174:10 0.00012426
21 *22:8 *174:18 0.00012426
22 *22:8 *174:10 0.00248621
23 *22:9 *174:18 0.00248621
24 *22:8 *174:18 0.00011605
25 *22:9 *174:16 0.000116050054
26 *22:2 *259:6 0.00015339
27 *22:3 *259:4 0.00015339
28 *22:4 *259:6 9.152e-05
29 *22:5 *259:4 9.15199867e-05

*RES
1 *22:11 *411:I 5.99976
2 *22:11 *22:12 0.160435
3 *22:5 *22:12 5.99976
4 *22:5 *22:4 0.480434
5 *22:3 *22:4 0.0802176
6 *22:3 *22:2 1.76043
7 *22:2 *22:9 0.0802176
8 *22:13 *22:15 11.3831
9 *22:6 *22:13 57.1428566
10 *22:7 *22:6 57.1428566
11 *22:8 *22:7 54.4686
12 *22:9 *22:8 57.1428566
13 *22:14 *22:15 5.99976
14 *22:14 *333:Z 5.99976
15 *22:10 *22:14 0.157819
*END

*D_NET *23 0.0842285

*CONN
*I *334:Z O *C 1269.48 1484.24 *L 0 *D dl04d1
*I *407:I I *C 648.44 1371.12 *L 0.00438 *D dl04d1

*CAP
1 *334:Z 7.09418e-05
2 *407:I 7.09418e-05
3 *23:3 5.66839e-05
4 *23:4 0.000101196
5 *23:5 0.0114693
6 *23:6 0.02279006
7 *23:7 0.02279006
8 *23:8 0.0125219
9 *23:9 0.00660176
10 *23:10 0.00115385
11 *23:11 0.00660176

*RES
1 *23:11 *334:Z 5.99976
2 *23:9 *23:11 31.8403
3 *23:10 *23:9 5.99976
4 *23:8 *23:10 5.64575
5 *23:7 *23:8 57.1428566
6 *23:6 *23:7 57.1428566
7 *23:5 *23:6 57.1428566
8 *23:4 *23:5 0.365339
9 *23:3 *407:I 5.99976
10 *23:3 *23:4 5.99976
11 *23:2 *23:3 0.157819
*END

*D_NET *24 0.0989478

*CONN
*I *335:Z O *C 1489.5601 1364.4 *L 0 *D dl04d1
*I *412:I I *C 629.96 1365.52 *L 0.00438 *D dl04d1

*CAP
1 *335:Z 7.09418e-05
2 *412:I 7.09418e-05
3 *24:2 6.15525e-05
4 *24:3 6.15525e-05
5 *24:4 0.000697595
6 *24:5 0.000697595
7 *24:6 0.000146057
8 *24:7 0.000137015
9 *24:8 0.0117673
10 *24:9 0.000468772
11 *24:10 0.0227296
12 *24:12 0.02279006
13 *24:13 0.02279006
14 *24:14 0.013681
15 *24:15 5.66839e-05
16 *24:16 0.00231569
17 *24:10 *63:4 0.00017488
18 *24:8 *63:2 0.00017488
19 *24:8 *63:2 2.813e-05
20 *24:9 *63:3 2.81300027e-05

*RES
1 *24:3 *412:I 5.99976
2 *24:3 *24:2 0.160435
3 *24:7 *24:2 5.99976
4 *24:7 *24:6 0.480434
5 *24:6 *24:5 0.160435
6 *24:5 *24:4 3.04042
7 *24:9 *24:4 0.160435
8 *24:14 *24:16 11.3831
9 *24:13 *24:14 57.1428566
10 *24:12 *24:13 57.1428566
11 *24:10 *24:12 57.1428566
12 *24:8 *24:10 57.1428566
13 *24:9 *24:8 2.12577
14 *24:15 *24:16 5.99976
15 *24:15 *335:Z 5.99976
16 *24:11 *24:15 0.157819
*END

*D_NET *25 0.0899516

*CONN
*I *336:Z O *C 518.52 569.2 *L 0 *D dl04d1
*I *405:I I *C 572.28 1253.52 *L 0.00438 *D dl04d1

*CAP
1 *336:Z 7.0896e-05
2 *405:I 7.0896e-05
3 *25:2 0.011478
4 *25:3 0.0114872