* SPICE NETLIST
***************************************

.SUBCKT M5_M4_LD_CDNS_7822207103920
** N=2 EP=0 IP=0 FDC=0
.ENDS
***************************************
.SUBCKT ICV_6
** N=8 EP=0 IP=2 FDC=0
.ENDS
***************************************
.SUBCKT pfeed00010
** N=5 EP=0 IP=0 FDC=0
.ENDS
***************************************
.SUBCKT pfeed00040
** N=5 EP=0 IP=20 FDC=0
.ENDS
***************************************
.SUBCKT pfeed00540
** N=5 EP=0 IP=0 FDC=0
.ENDS
***************************************
.SUBCKT pfeed00120
** N=5 EP=0 IP=60 FDC=0
.ENDS
***************************************
.SUBCKT pfeed10000
** N=5 EP=0 IP=0 FDC=0
.ENDS
***************************************
.SUBCKT pfeed30000
** N=5 EP=0 IP=0 FDC=0
.ENDS
***************************************
.SUBCKT subil_preside
** N=4 EP=0 IP=0 FDC=0
.ENDS
***************************************
.SUBCKT M2_M1_CDNS_7822207103951
** N=1 EP=0 IP=0 FDC=0
.ENDS
***************************************
.SUBCKT M3_M2_CDNS_7822207103949
** N=1 EP=0 IP=0 FDC=0
.ENDS
***************************************
.SUBCKT M3_M2_CDNS_7822207103950
** N=1 EP=0 IP=0 FDC=0
.ENDS
***************************************
.SUBCKT rpmpoly2t$$44660780 1 2
** N=3 EP=2 IP=0 FDC=1
R0 1 2 1180.05 L=6.455e-06 W=2e-06 $[RD] $X=0 $Y=540 $D=65
.ENDS
***************************************
.SUBCKT subil_vddring
** N=2 EP=0 IP=0 FDC=0
.ENDS
***************************************
.SUBCKT subil_podrive01 2 4 5 6 7 8 9
** N=15 EP=7 IP=20 FDC=23
M0 4 11 8 2 NH L=3.6e-07 W=1e-05 $X=26380 $Y=9530 $D=22
M1 8 11 4 2 NH L=3.6e-07 W=1e-05 $X=27560 $Y=9530 $D=22
M2 4 12 6 2 NH L=3.6e-07 W=1e-05 $X=31460 $Y=9730 $D=22
M3 6 12 4 2 NH L=3.6e-07 W=1e-05 $X=32640 $Y=9730 $D=22
M4 4 12 6 2 NH L=3.6e-07 W=1e-05 $X=33820 $Y=9730 $D=22
M5 14 15 7 2 NH L=3.6e-07 W=5e-06 $X=46220 $Y=5700 $D=22
M6 8 5 14 2 NH L=3.6e-07 W=1e-05 $X=46270 $Y=9480 $D=22
M7 14 5 8 2 NH L=3.6e-07 W=1e-05 $X=47450 $Y=9480 $D=22
M8 8 15 11 2 NH L=3.6e-07 W=1e-05 $X=49970 $Y=9530 $D=22
M9 11 15 8 2 NH L=3.6e-07 W=1e-05 $X=51150 $Y=9530 $D=22
M10 2 5 15 2 N L=1.8e-07 W=5e-06 $X=59410 $Y=11640 $D=26
M11 7 11 6 7 PH L=3.6e-07 W=2e-05 $X=26550 $Y=38440 $D=41
M12 6 11 7 7 PH L=3.6e-07 W=2e-05 $X=27730 $Y=38440 $D=41
M13 4 13 6 7 PH L=3.6e-07 W=1e-05 $X=31560 $Y=48370 $D=41
M14 6 13 4 7 PH L=3.6e-07 W=1e-05 $X=32740 $Y=48370 $D=41
M15 4 13 6 7 PH L=3.6e-07 W=1e-05 $X=33920 $Y=48370 $D=41
M16 7 11 14 7 PH L=3.6e-07 W=7.2e-06 $X=45390 $Y=37110 $D=41
M17 11 14 7 7 PH L=3.6e-07 W=7.2e-06 $X=46570 $Y=37110 $D=41
M18 15 5 9 9 P L=1.8e-07 W=5e-06 $X=72980 $Y=50100 $D=38
M19 9 5 15 9 P L=1.8e-07 W=5e-06 $X=73720 $Y=50100 $D=38
D20 2 5 DN AREA=2.5e-13 PJ=2e-06 $X=60885 $Y=10080 $D=94
X27 12 7 rpmpoly2t$$44660780 $T=30895 6880 0 270 $X=30715 $Y=4660
X28 13 8 rpmpoly2t$$44660780 $T=33810 45745 0 180 $X=31590 $Y=38030
.ENDS
***************************************
.SUBCKT subil_pngatering
** N=5 EP=0 IP=0 FDC=0
.ENDS
***************************************
.SUBCKT subil_pngatebuff 2 3 4
** N=6 EP=3 IP=0 FDC=1
M0 2 3 4 2 NH L=5e-07 W=3e-05 $X=26020 $Y=5150 $D=22
.ENDS
***************************************
.SUBCKT subil_pngate2buff 2 3 4 5
** N=7 EP=4 IP=12 FDC=2
X0 2 3 4 subil_pngatebuff $T=0 6220 1 0 $X=16000 $Y=-2070
X1 2 5 4 subil_pngatebuff $T=0 2640 0 0 $X=16000 $Y=1080
.ENDS
***************************************
.SUBCKT M3_M2_CDNS_7822207103944
** N=2 EP=0 IP=0 FDC=0
.ENDS
***************************************
.SUBCKT subil_pnbuff 1 3 4 5
** N=7 EP=4 IP=60 FDC=12
X2 1 3 5 3 subil_pngate2buff $T=28580 125970 1 270 $X=17650 $Y=61860
X3 1 3 5 3 subil_pngate2buff $T=38020 125970 1 270 $X=27090 $Y=61860
X4 1 3 5 3 subil_pngate2buff $T=47460 125970 1 270 $X=36530 $Y=61860
X5 1 3 5 3 subil_pngate2buff $T=56900 125970 1 270 $X=45970 $Y=61860
X6 1 4 5 3 subil_pngate2buff $T=66340 125970 1 270 $X=55410 $Y=61860
X7 1 3 5 4 subil_pngate2buff $T=75780 125970 1 270 $X=64850 $Y=61860
.ENDS
***************************************
.SUBCKT subil_ppgatebuff 2 3 4
** N=4 EP=3 IP=0 FDC=1
M0 2 3 4 2 PH L=4e-07 W=5.2e-05 $X=10090 $Y=4110 $D=41
.ENDS
***************************************
.SUBCKT subil_ppgate2buff 2 3 4
** N=4 EP=3 IP=8 FDC=2
X0 2 3 4 subil_ppgatebuff $T=1480 3020 1 0 $X=4750 $Y=-4550
X1 2 3 4 subil_ppgatebuff $T=1480 -560 0 0 $X=4750 $Y=-1860
.ENDS
***************************************
.SUBCKT subil_ppbuff 1 2 3 4
** N=5 EP=4 IP=16 FDC=12
M0 4 1 3 3 PH L=4e-07 W=5.2e-05 $X=10500 $Y=-460 $D=41
M1 3 1 4 3 PH L=4e-07 W=5.2e-05 $X=10500 $Y=4580 $D=41
M2 4 2 3 3 PH L=4e-07 W=5.2e-05 $X=10500 $Y=35840 $D=41
M3 3 2 4 3 PH L=4e-07 W=5.2e-05 $X=10500 $Y=40880 $D=41
X4 3 1 4 subil_ppgate2buff $T=-1070 8290 0 0 $X=3680 $Y=3740
X5 3 1 4 subil_ppgate2buff $T=-1070 15550 0 0 $X=3680 $Y=11000
X6 3 1 4 subil_ppgate2buff $T=-1070 22810 0 0 $X=3680 $Y=18260
X7 3 1 4 subil_ppgate2buff $T=-1070 30070 0 0 $X=3680 $Y=25520
.ENDS
***************************************
.SUBCKT subil_psegment
** N=2 EP=0 IP=0 FDC=0
.ENDS
***************************************
.SUBCKT subil_via1array
** N=2 EP=0 IP=0 FDC=0
.ENDS
***************************************
.SUBCKT subil_via2array
** N=2 EP=0 IP=0 FDC=0
.ENDS
***************************************
.SUBCKT subil_cornerarray
** N=2 EP=0 IP=0 FDC=0
.ENDS
***************************************
.SUBCKT subil_pad
** N=3 EP=0 IP=18 FDC=0
.ENDS
***************************************
.SUBCKT subil_iorule
** N=2 EP=0 IP=0 FDC=0
.ENDS
***************************************
.SUBCKT subil_ppolyres 1 2
** N=3 EP=2 IP=0 FDC=1
R0 2 1 302.279 L=2.5e-06 W=4e-06 $[RE] $X=140 $Y=5120 $D=70
.ENDS
***************************************
.SUBCKT subil_nwellres 1 2
** N=3 EP=2 IP=0 FDC=1
R0 1 2 4891.48 L=8.65e-06 W=2.1e-06 $[RW] $X=2060 $Y=720 $D=79
.ENDS
***************************************
.SUBCKT pc3o01 VSSO VSS VDD VDDO I
** N=12 EP=5 IP=40 FDC=51
X0 VSS 12 I 9 VDDO VSSO VDD subil_podrive01 $T=-15430 134970 0 0 $X=-920 $Y=92510
X2 VSSO 11 12 PAD subil_pnbuff $T=-15240 25720 0 0 $X=-870 $Y=87580
X3 8 9 VDDO PAD subil_ppbuff $T=-4000 203800 0 0 $X=-350 $Y=196990
X6 10 7 subil_ppolyres $T=18405 135660 0 270 $X=21975 $Y=131300
X7 PAD 10 subil_ppolyres $T=35220 135670 0 270 $X=38790 $Y=131310
X8 VSSO 11 subil_nwellres $T=51125 154185 0 270 $X=51665 $Y=142555
X9 8 VDDO subil_nwellres $T=59985 154235 0 270 $X=60525 $Y=142605
.ENDS
***************************************
.SUBCKT subil_midconer2
** N=4 EP=0 IP=0 FDC=0
.ENDS
***************************************
.SUBCKT pfrelr
** N=4 EP=0 IP=8 FDC=0
*.CALIBRE ISOLATED NETS: VDDO VDD VSSO VSS
.ENDS
***************************************
.SUBCKT M2_M1_S_CDNS_782220710392
** N=2 EP=0 IP=0 FDC=0
.ENDS
***************************************
.SUBCKT subil_pddrive01 1 2 4 5 6 7 8 9
** N=17 EP=8 IP=32 FDC=25
M0 6 13 6 1 NH L=3.6e-07 W=1.667e-05 $X=20320 $Y=3530 $D=22
M1 6 13 6 1 NH L=3.6e-07 W=1.667e-05 $X=21500 $Y=3530 $D=22
M2 6 13 6 1 NH L=3.6e-07 W=1.667e-05 $X=22680 $Y=3530 $D=22
M3 7 12 6 1 NH L=3.6e-07 W=1e-05 $X=24690 $Y=9600 $D=22
M4 8 16 5 1 NH L=3.6e-07 W=1e-05 $X=29880 $Y=9440 $D=22
M5 5 16 8 1 NH L=3.6e-07 W=1e-05 $X=31060 $Y=9440 $D=22
M6 2 5 8 1 NH L=3.6e-07 W=6e-06 $X=33180 $Y=12350 $D=22
M7 4 2 1 1 NH L=3.6e-07 W=6e-06 $X=35210 $Y=9420 $D=22
M8 6 11 6 7 PH L=3.6e-07 W=1.667e-05 $X=18780 $Y=42620 $D=41
M9 6 11 6 7 PH L=3.6e-07 W=1.667e-05 $X=19960 $Y=42620 $D=41
M10 6 11 6 7 PH L=3.6e-07 W=1.667e-05 $X=21140 $Y=42620 $D=41
M11 7 14 6 7 PH L=3.6e-07 W=2e-05 $X=23240 $Y=40340 $D=41
M12 7 15 5 7 PH L=3.6e-07 W=2e-05 $X=29970 $Y=39200 $D=41
M13 17 5 7 7 PH L=3.6e-07 W=2e-05 $X=32580 $Y=39250 $D=41
M14 2 5 17 7 PH L=3.6e-07 W=2e-05 $X=33340 $Y=39250 $D=41
M15 9 2 4 9 PH L=3.6e-07 W=8e-06 $X=65900 $Y=48020 $D=41
M16 4 2 9 9 PH L=3.6e-07 W=8e-06 $X=67080 $Y=48020 $D=41
M17 9 2 4 9 PH L=3.6e-07 W=8e-06 $X=68260 $Y=48020 $D=41
M18 4 2 9 9 PH L=3.6e-07 W=8e-06 $X=69440 $Y=48020 $D=41
X25 15 7 rpmpoly2t$$44660780 $T=27675 59970 0 180 $X=25455 $Y=52255
X26 8 11 rpmpoly2t$$44660780 $T=28390 50475 0 180 $X=26170 $Y=42760
X27 7 13 rpmpoly2t$$44660780 $T=35785 3175 0 90 $X=28070 $Y=2955
X28 7 12 rpmpoly2t$$44660780 $T=35785 5530 0 90 $X=28070 $Y=5310
X29 14 8 rpmpoly2t$$44660780 $T=28535 37840 0 270 $X=28355 $Y=35620
X30 8 16 rpmpoly2t$$44660780 $T=47880 3175 0 90 $X=40165 $Y=2955
.ENDS
***************************************
.SUBCKT pc3d01 VSSO VSS VDD VDDO CIN
** N=11 EP=5 IP=37 FDC=52
X1 VSSO 11 11 PAD subil_pnbuff $T=-15240 25720 0 0 $X=-870 $Y=87580
X2 7 7 VDDO PAD subil_ppbuff $T=-4000 203800 0 0 $X=-350 $Y=196990
X5 PAD 8 subil_ppolyres $T=30480 136210 1 270 $X=21200 $Y=131850
X6 9 8 subil_ppolyres $T=35960 136210 0 270 $X=39530 $Y=131850
X7 VSSO 11 subil_nwellres $T=59660 149815 0 270 $X=60200 $Y=138185
X8 VSS 10 CIN 9 7 VDDO VSSO VDD subil_pddrive01 $T=-15430 134970 0 0 $X=-920 $Y=92510
.ENDS
***************************************
.SUBCKT M3_M2_S_CDNS_782220710391
** N=2 EP=0 IP=0 FDC=0
.ENDS
***************************************
.SUBCKT subil_presistorpower 1 2
** N=3 EP=2 IP=0 FDC=1
R0 1 2 8253.06 L=1.46e-05 W=2.1e-06 $[RW] $X=-20 $Y=10560 $D=79
.ENDS
***************************************
.SUBCKT subil_pngatebuff_ESD 1 2 3
** N=4 EP=3 IP=0 FDC=1
M0 2 3 1 2 NH L=4e-07 W=3e-05 $X=26020 $Y=5250 $D=22
.ENDS
***************************************
.SUBCKT subil_pngate2buff_ESD 1 2 3
** N=4 EP=3 IP=8 FDC=2
X0 1 2 3 subil_pngatebuff_ESD $T=0 6220 1 0 $X=16000 $Y=-2070
X1 1 2 3 subil_pngatebuff_ESD $T=0 2640 0 0 $X=16000 $Y=1330
.ENDS
***************************************
.SUBCKT ICV_7 1 2 3
** N=4 EP=3 IP=8 FDC=4
X0 1 2 3 subil_pngate2buff_ESD $T=0 -9440 0 0 $X=16000 $Y=-11510
X1 1 2 3 subil_pngate2buff_ESD $T=0 0 0 0 $X=16000 $Y=-2070
.ENDS
***************************************
.SUBCKT subil_iorulepower
** N=2 EP=0 IP=0 FDC=0
.ENDS
***************************************
.SUBCKT subil_4via_ESD
** N=2 EP=0 IP=0 FDC=0
.ENDS
***************************************
.SUBCKT subil_pv0acon_ESD
** N=4 EP=0 IP=12 FDC=0
.ENDS
***************************************
.SUBCKT subil_pdiodepower
** N=3 EP=0 IP=0 FDC=0
.ENDS
***************************************
.SUBCKT subil_powerbase_1 1 2 3 4
** N=9 EP=4 IP=6 FDC=19
D0 4 3 P3 AREA=1.331e-11 PJ=2.862e-05 $X=14620 $Y=11030 $D=99
D1 4 3 P3 AREA=1.331e-11 PJ=2.862e-05 $X=17420 $Y=11030 $D=99
D2 4 3 P3 AREA=1.331e-11 PJ=2.862e-05 $X=20220 $Y=11030 $D=99
D3 4 3 P3 AREA=1.331e-11 PJ=2.862e-05 $X=23020 $Y=11030 $D=99
D4 4 3 P3 AREA=1.331e-11 PJ=2.862e-05 $X=25820 $Y=11030 $D=99
D5 4 3 P3 AREA=1.331e-11 PJ=2.862e-05 $X=28620 $Y=11030 $D=99
D6 4 3 P3 AREA=1.331e-11 PJ=2.862e-05 $X=31420 $Y=11030 $D=99
D7 4 3 P3 AREA=1.331e-11 PJ=2.862e-05 $X=34220 $Y=11030 $D=99
D8 4 3 P3 AREA=1.331e-11 PJ=2.862e-05 $X=37020 $Y=11030 $D=99
D9 3 4 P3 AREA=1.331e-11 PJ=2.862e-05 $X=43960 $Y=11030 $D=99
D10 3 4 P3 AREA=1.331e-11 PJ=2.862e-05 $X=46760 $Y=11030 $D=99
D11 3 4 P3 AREA=1.331e-11 PJ=2.862e-05 $X=49560 $Y=11030 $D=99
D12 3 4 P3 AREA=1.331e-11 PJ=2.862e-05 $X=52360 $Y=11030 $D=99
D13 3 4 P3 AREA=1.331e-11 PJ=2.862e-05 $X=55160 $Y=11030 $D=99
D14 3 4 P3 AREA=1.331e-11 PJ=2.862e-05 $X=57960 $Y=11030 $D=99
D15 3 4 P3 AREA=1.331e-11 PJ=2.862e-05 $X=60760 $Y=11030 $D=99
D16 3 4 P3 AREA=1.331e-11 PJ=2.862e-05 $X=63560 $Y=11030 $D=99
D17 3 4 P3 AREA=1.331e-11 PJ=2.862e-05 $X=66360 $Y=11030 $D=99
C18 1 2 L=1.513e-05 W=1.513e-05 $[CH] $X=51860 $Y=41355 $D=112
.ENDS
***************************************
.SUBCKT subil_ppgatebuffpower 2 3 4
** N=6 EP=3 IP=0 FDC=1
M0 2 3 4 2 PH L=4e-07 W=4e-05 $X=9010 $Y=4110 $D=41
.ENDS
***************************************
.SUBCKT subil_ppgate2buffpower 2 3 4
** N=6 EP=3 IP=12 FDC=2
X0 2 3 4 subil_ppgatebuffpower $T=0 3020 1 0 $X=-3870 $Y=-4910
X1 2 3 4 subil_ppgatebuffpower $T=0 -560 0 0 $X=-3870 $Y=-1870
.ENDS
***************************************
.SUBCKT subil_ppbuffpower 1 3 4
** N=6 EP=3 IP=36 FDC=12
X0 1 3 4 subil_ppgate2buffpower $T=0 1030 0 0 $X=-3870 $Y=-3880
X1 1 3 4 subil_ppgate2buffpower $T=0 8290 0 0 $X=-3870 $Y=3380
X2 1 3 4 subil_ppgate2buffpower $T=0 15550 0 0 $X=-3870 $Y=10640
X3 1 3 4 subil_ppgate2buffpower $T=0 22810 0 0 $X=-3870 $Y=17900
X4 1 3 4 subil_ppgate2buffpower $T=0 30070 0 0 $X=-3870 $Y=25160
X5 1 3 4 subil_ppgate2buffpower $T=0 37330 0 0 $X=-3870 $Y=32420
.ENDS
***************************************
.SUBCKT pv0a VSSO VSS VDDO
** N=8 EP=3 IP=61 FDC=47
*.CALIBRE ISOLATED NETS: VDD
X3 VDDO 5 subil_presistorpower $T=3010 196210 0 0 $X=2810 $Y=205700
X4 5 7 subil_presistorpower $T=3010 216270 0 0 $X=2810 $Y=225760
X5 6 8 subil_presistorpower $T=60150 196210 0 0 $X=59950 $Y=205700
X6 8 VSSO subil_presistorpower $T=60150 216270 0 0 $X=59950 $Y=225760
X7 VDDO VSSO 6 subil_pngate2buff_ESD $T=13340 151690 1 270 $X=2410 $Y=87580
X8 VDDO VSSO 6 subil_pngate2buff_ESD $T=60540 151690 1 270 $X=49610 $Y=87580
X9 VDDO VSSO 6 ICV_7 $T=22780 151690 1 270 $X=11850 $Y=87580
X10 VDDO VSSO 6 ICV_7 $T=41660 151690 1 270 $X=30730 $Y=87580
X13 VDDO 6 VSS VSSO subil_powerbase_1 $T=-8490 129540 0 0 $X=-325 $Y=129540
X14 VDDO 7 VSSO subil_ppbuffpower $T=3500 203800 0 0 $X=-370 $Y=196810
.ENDS
***************************************
.SUBCKT subil_pngatebuff_ESD1 1 2 3
** N=4 EP=3 IP=0 FDC=1
M0 2 3 1 2 NH L=4e-07 W=3e-05 $X=26020 $Y=5250 $D=22
.ENDS
***************************************
.SUBCKT subil_pngate2buff_ESD1 1 2 3
** N=4 EP=3 IP=8 FDC=2
X0 1 2 3 subil_pngatebuff_ESD1 $T=0 6220 1 0 $X=16000 $Y=-2070
X1 1 2 3 subil_pngatebuff_ESD1 $T=0 2640 0 0 $X=16000 $Y=1080
.ENDS
***************************************
.SUBCKT subil_pvdacon_ESD
** N=4 EP=0 IP=0 FDC=0
.ENDS
***************************************
.SUBCKT subil_powerbasecon_ESD 1 2 3 4
** N=10 EP=4 IP=12 FDC=4
X0 3 9 subil_presistorpower $T=1110 -9670 0 0 $X=910 $Y=-180
X1 9 2 subil_presistorpower $T=1110 10390 0 0 $X=910 $Y=19880
X2 1 10 subil_presistorpower $T=56330 -9550 0 0 $X=56130 $Y=-60
X3 10 4 subil_presistorpower $T=56330 10510 0 0 $X=56130 $Y=20000
.ENDS
***************************************
.SUBCKT pvda VSSO VSS VDDO
** N=7 EP=3 IP=65 FDC=47
*.CALIBRE ISOLATED NETS: VDD
X4 VDDO 5 VSS VSSO subil_powerbase_1 $T=-8490 129540 0 0 $X=-325 $Y=129540
X5 VDDO 6 VSSO subil_ppbuffpower $T=3500 203800 0 0 $X=-370 $Y=196810
X6 VDDO VSSO 5 subil_pngate2buff_ESD1 $T=13340 151690 1 270 $X=2410 $Y=87580
X7 VDDO VSSO 5 subil_pngate2buff_ESD1 $T=22780 151690 1 270 $X=11850 $Y=87580
X8 VDDO VSSO 5 subil_pngate2buff_ESD1 $T=32220 151690 1 270 $X=21290 $Y=87580
X9 VDDO VSSO 5 subil_pngate2buff_ESD1 $T=41660 151690 1 270 $X=30730 $Y=87580
X10 VDDO VSSO 5 subil_pngate2buff_ESD1 $T=51100 151690 1 270 $X=40170 $Y=87580
X11 VDDO VSSO 5 subil_pngate2buff_ESD1 $T=60540 151690 1 270 $X=49610 $Y=87580
X13 5 6 VDDO VSSO subil_powerbasecon_ESD $T=3330 205880 0 0 $X=4240 $Y=126110
.ENDS
***************************************
.SUBCKT subil_pngatering_ESD22
** N=2 EP=0 IP=0 FDC=0
.ENDS
***************************************
.SUBCKT subil_pngatebuff_ESD22 2 3 4
** N=4 EP=3 IP=0 FDC=1
M0 2 3 4 2 N L=2.5e-07 W=3e-05 $X=26020 $Y=5400 $D=26
.ENDS
***************************************
.SUBCKT subil_pngate2buff_ESD22 2 3 4
** N=4 EP=3 IP=8 FDC=2
X0 2 3 4 subil_pngatebuff_ESD22 $T=0 6220 1 0 $X=16000 $Y=-2070
X1 2 3 4 subil_pngatebuff_ESD22 $T=0 2640 0 0 $X=16000 $Y=1430
.ENDS
***************************************
.SUBCKT ICV_8 2 3 4
** N=4 EP=3 IP=8 FDC=4
X0 2 3 4 subil_pngate2buff_ESD22 $T=0 -9440 0 0 $X=16000 $Y=-11510
X1 2 3 4 subil_pngate2buff_ESD22 $T=0 0 0 0 $X=16000 $Y=-2070
.ENDS
***************************************
.SUBCKT subil_pv0icon_ESD
** N=5 EP=0 IP=12 FDC=0
.ENDS
***************************************
.SUBCKT subil_ppgatebuffpower_0di_ESD22 1 2 3
** N=5 EP=3 IP=0 FDC=1
M0 2 3 1 2 P L=2.5e-07 W=4e-05 $X=9010 $Y=4310 $D=38
.ENDS
***************************************
.SUBCKT subil_ppgate2buffpower_0di_ESD22 1 2 3
** N=5 EP=3 IP=10 FDC=2
X0 1 2 3 subil_ppgatebuffpower_0di_ESD22 $T=0 3020 1 0 $X=3710 $Y=-4550
X1 1 2 3 subil_ppgatebuffpower_0di_ESD22 $T=0 -560 0 0 $X=3710 $Y=-1860
.ENDS
***************************************
.SUBCKT subil_ppbuffpower_0di_ESD22 1 2 3
** N=5 EP=3 IP=30 FDC=12
X0 2 1 3 subil_ppgate2buffpower_0di_ESD22 $T=0 1030 0 0 $X=3710 $Y=-3520
X1 2 1 3 subil_ppgate2buffpower_0di_ESD22 $T=0 8290 0 0 $X=3710 $Y=3740
X2 2 1 3 subil_ppgate2buffpower_0di_ESD22 $T=0 15550 0 0 $X=3710 $Y=11000
X3 2 1 3 subil_ppgate2buffpower_0di_ESD22 $T=0 22810 0 0 $X=3710 $Y=18260
X4 2 1 3 subil_ppgate2buffpower_0di_ESD22 $T=0 30070 0 0 $X=3710 $Y=25520
X5 2 1 3 subil_ppgate2buffpower_0di_ESD22 $T=0 37330 0 0 $X=3710 $Y=32780
.ENDS
***************************************
.SUBCKT pv0i VSSO VSS VDD
** N=9 EP=3 IP=55 FDC=47
*.CALIBRE ISOLATED NETS: VDDO
X1 VDD 5 subil_presistorpower $T=3010 196210 0 0 $X=2810 $Y=205700
X2 5 7 subil_presistorpower $T=3010 216270 0 0 $X=2810 $Y=225760
X3 6 8 subil_presistorpower $T=60150 196210 0 0 $X=59950 $Y=205700
X4 8 VSS subil_presistorpower $T=60150 216270 0 0 $X=59950 $Y=225760
X6 VDD 6 VSS VSSO subil_powerbase_1 $T=-8490 129540 0 0 $X=-325 $Y=129540
X9 VSS 6 VDD subil_pngate2buff_ESD22 $T=13340 151690 1 270 $X=2410 $Y=87580
X10 VSS 6 VDD subil_pngate2buff_ESD22 $T=60540 151690 1 270 $X=49610 $Y=87580
X11 VSS 6 VDD ICV_8 $T=22780 151690 1 270 $X=11850 $Y=87580
X12 VSS 6 VDD ICV_8 $T=41660 151690 1 270 $X=30730 $Y=87580
X14 VDD VSS 7 subil_ppbuffpower_0di_ESD22 $T=3500 203800 0 0 $X=-60 $Y=196810
.ENDS
***************************************
.SUBCKT subil_pngatering22
** N=4 EP=0 IP=0 FDC=0
.ENDS
***************************************
.SUBCKT subil_pvdicon_ESD
** N=5 EP=0 IP=0 FDC=0
.ENDS
***************************************
.SUBCKT subil_pngatebuff_ESD122 2 3 4
** N=5 EP=3 IP=0 FDC=1
M0 2 3 4 2 N L=2.5e-07 W=3e-05 $X=26020 $Y=5400 $D=26
.ENDS
***************************************
.SUBCKT subil_pngate2buff_ESD122 2 3 4
** N=5 EP=3 IP=10 FDC=2
X0 2 3 4 subil_pngatebuff_ESD122 $T=0 6220 1 0 $X=16000 $Y=-2070
X1 2 3 4 subil_pngatebuff_ESD122 $T=0 2640 0 0 $X=16000 $Y=1080
.ENDS
***************************************
.SUBCKT pvdi VSSO VSS VDD
** N=7 EP=3 IP=69 FDC=47
*.CALIBRE ISOLATED NETS: VDDO
X2 VDD 5 VSS VSSO subil_powerbase_1 $T=-8490 129540 0 0 $X=-325 $Y=129540
X3 5 6 VDD VSS subil_powerbasecon_ESD $T=3330 205880 0 0 $X=4240 $Y=126110
X4 VDD VSS 6 subil_ppbuffpower_0di_ESD22 $T=3500 203800 0 0 $X=-60 $Y=196810
X8 VSSO 5 VDD subil_pngate2buff_ESD122 $T=13340 151690 1 270 $X=2410 $Y=87580
X9 VSSO 5 VDD subil_pngate2buff_ESD122 $T=22780 151690 1 270 $X=11850 $Y=87580
X10 VSSO 5 VDD subil_pngate2buff_ESD122 $T=32220 151690 1 270 $X=21290 $Y=87580
X11 VSSO 5 VDD subil_pngate2buff_ESD122 $T=41660 151690 1 270 $X=30730 $Y=87580
X12 VSSO 5 VDD subil_pngate2buff_ESD122 $T=51100 151690 1 270 $X=40170 $Y=87580
X13 VSSO 5 VDD subil_pngate2buff_ESD122 $T=60540 151690 1 270 $X=49610 $Y=87580
.ENDS
***************************************
.SUBCKT ICV_9 13 14 15 16 21 40 52 75 84 102 108 138 148
** N=22199 EP=13 IP=682 FDC=655
X117 14 13 15 16 52 pc3o01 $T=1969920 1604160 0 90 $X=1719600 $Y=1603240
X133 14 13 15 16 21 pc3d01 $T=395840 1969920 0 180 $X=329920 $Y=1719600
X134 14 13 15 16 102 pc3d01 $T=511600 1969920 0 180 $X=445680 $Y=1719600
X135 14 13 15 16 108 pc3d01 $T=627360 1969920 0 180 $X=561440 $Y=1719600
X136 14 13 15 16 40 pc3d01 $T=743115 1969920 0 180 $X=677195 $Y=1719600
X137 14 13 15 16 138 pc3d01 $T=1321890 1969920 0 180 $X=1255970 $Y=1719600
X138 14 13 15 16 75 pc3d01 $T=1437645 1969920 0 180 $X=1371725 $Y=1719600
X139 14 13 15 16 148 pc3d01 $T=1553400 1969920 0 180 $X=1487480 $Y=1719600
X140 14 13 15 16 84 pc3d01 $T=1669160 1969920 0 180 $X=1603240 $Y=1719600
X143 14 13 16 pv0a $T=1206135 1969920 0 180 $X=1140265 $Y=1719600
X144 14 13 16 pvda $T=1090380 1969920 0 180 $X=1024510 $Y=1719600
X145 14 13 15 pv0i $T=974625 1969920 0 180 $X=908755 $Y=1719860
X146 14 13 15 pvdi $T=858870 1969920 0 180 $X=793000 $Y=1719860
.ENDS
***************************************
.SUBCKT ML_M5_LD_CDNS_782220710397
** N=2 EP=0 IP=0 FDC=0
.ENDS
***************************************
.SUBCKT M5_M4_LD_CDNS_7822207103922
** N=2 EP=0 IP=0 FDC=0
.ENDS
***************************************
.SUBCKT M4_M3_LD_CDNS_7822207103923
** N=2 EP=0 IP=0 FDC=0
.ENDS
***************************************
.SUBCKT M3_M2_LD_CDNS_7822207103924
** N=2 EP=0 IP=0 FDC=0
.ENDS
***************************************
.SUBCKT M2_M1_LD_CDNS_7822207103925
** N=2 EP=0 IP=0 FDC=0
.ENDS
***************************************
.SUBCKT ML_M5_LD_CDNS_782220710399
** N=2 EP=0 IP=0 FDC=0
.ENDS
***************************************
.SUBCKT M5_M4_LD_CDNS_7822207103927
** N=2 EP=0 IP=0 FDC=0
.ENDS
***************************************
.SUBCKT ML_M5_LD_CDNS_7822207103926
** N=2 EP=0 IP=0 FDC=0
.ENDS
***************************************
.SUBCKT M3_M2_LD_CDNS_7822207103929
** N=2 EP=0 IP=0 FDC=0
.ENDS
***************************************
.SUBCKT M4_M3_LD_CDNS_7822207103928
** N=2 EP=0 IP=0 FDC=0
.ENDS
***************************************
.SUBCKT ICV_10
** N=2 EP=0 IP=4 FDC=0
.ENDS
***************************************
.SUBCKT M2_M1_LD_CDNS_7822207103930
** N=2 EP=0 IP=0 FDC=0
.ENDS
***************************************
.SUBCKT ICV_11
** N=2 EP=0 IP=8 FDC=0
.ENDS
***************************************
.SUBCKT feedth
** N=2 EP=0 IP=0 FDC=0
*.CALIBRE ISOLATED NETS: VSS VDD
.ENDS
***************************************
.SUBCKT feedth3
** N=2 EP=0 IP=0 FDC=0
*.CALIBRE ISOLATED NETS: VSS VDD
.ENDS
***************************************
.SUBCKT ICV_12
** N=2 EP=0 IP=4 FDC=0
.ENDS
***************************************
.SUBCKT ICV_13
** N=2 EP=0 IP=4 FDC=0
.ENDS
***************************************
.SUBCKT M4_M3_S_CDNS_782220710394
** N=2 EP=0 IP=0 FDC=0
.ENDS
***************************************
.SUBCKT ICV_14
** N=2 EP=0 IP=4 FDC=0
.ENDS
***************************************
.SUBCKT dl04d1 I VSS VDD Z
** N=7 EP=4 IP=0 FDC=8
M0 VSS I 5 VSS N L=1.8e-07 W=4.2e-07 $X=630 $Y=1760 $D=26
M1 6 5 VSS VSS N L=2.54e-06 W=4.2e-07 $X=1290 $Y=1760 $D=26
M2 VSS 6 7 VSS N L=1.71e-06 W=4.5e-07 $X=4090 $Y=940 $D=26
M3 Z 7 VSS VSS N L=1.8e-07 W=4.2e-07 $X=6430 $Y=1450 $D=26
M4 VDD I 5 VDD P L=1.84827e-07 W=1.60042e-06 $X=460 $Y=3740 $D=38
M5 6 5 VDD VDD P L=2.1e-06 W=4.8e-07 $X=1310 $Y=3040 $D=38
M6 VDD 6 7 VDD P L=3.65e-06 W=4.2e-07 $X=2330 $Y=4230 $D=38
M7 Z 7 VDD VDD P L=1.84709e-07 W=1.64042e-06 $X=6410 $Y=3040 $D=38
.ENDS
***************************************
.SUBCKT feedth9
** N=2 EP=0 IP=0 FDC=0
*.CALIBRE ISOLATED NETS: VSS VDD
.ENDS
***************************************
.SUBCKT ICV_15
** N=2 EP=0 IP=4 FDC=0
.ENDS
***************************************
.SUBCKT ICV_16
** N=2 EP=0 IP=4 FDC=0
.ENDS
***************************************
.SUBCKT ICV_17
** N=2 EP=0 IP=4 FDC=0
.ENDS
***************************************
.SUBCKT ICV_18
** N=2 EP=0 IP=4 FDC=0
.ENDS
***************************************
.SUBCKT ICV_19
** N=2 EP=0 IP=4 FDC=0
.ENDS
***************************************
.SUBCKT ICV_20
** N=2 EP=0 IP=4 FDC=0
.ENDS
***************************************
.SUBCKT ICV_21
** N=2 EP=0 IP=4 FDC=0
.ENDS
***************************************
.SUBCKT ICV_22
** N=2 EP=0 IP=4 FDC=0
.ENDS
***************************************
.SUBCKT ICV_23
** N=2 EP=0 IP=4 FDC=0
.ENDS
***************************************
.SUBCKT ML_M5_LD_CDNS_782220710398
** N=2 EP=0 IP=0 FDC=0
.ENDS
***************************************
.SUBCKT M4_M3_LD_CDNS_7822207103912
** N=2 EP=0 IP=0 FDC=0
.ENDS
***************************************
.SUBCKT M5_M4_LD_CDNS_7822207103911
** N=2 EP=0 IP=0 FDC=0
.ENDS
***************************************
.SUBCKT ICV_24
** N=2 EP=0 IP=4 FDC=0
.ENDS
***************************************
.SUBCKT M2_M1_LD_CDNS_7822207103914
** N=2 EP=0 IP=0 FDC=0
.ENDS
***************************************
.SUBCKT M3_M2_LD_CDNS_7822207103913
** N=2 EP=0 IP=0 FDC=0
.ENDS
***************************************
.SUBCKT ICV_25
** N=2 EP=0 IP=4 FDC=0
.ENDS
***************************************
.SUBCKT ML_M5_LD_CDNS_7822207103910
** N=2 EP=0 IP=0 FDC=0
.ENDS
***************************************
.SUBCKT ICV_26
** N=1 EP=0 IP=6 FDC=0
.ENDS
***************************************
.SUBCKT ML_M5_LD_CDNS_7822207103915
** N=2 EP=0 IP=0 FDC=0
.ENDS
***************************************
.SUBCKT M2_M1_LD_CDNS_7822207103919
** N=2 EP=0 IP=0 FDC=0
.ENDS
***************************************
.SUBCKT M3_M2_LD_CDNS_7822207103918
** N=2 EP=0 IP=0 FDC=0
.ENDS
***************************************
.SUBCKT M4_M3_LD_CDNS_7822207103917
** N=2 EP=0 IP=0 FDC=0
.ENDS
***************************************
.SUBCKT M5_M4_LD_CDNS_7822207103916
** N=2 EP=0 IP=0 FDC=0
.ENDS
***************************************
.SUBCKT ICV_27
** N=2 EP=0 IP=8 FDC=0
.ENDS
***************************************
.SUBCKT ICV_28
** N=2 EP=0 IP=4 FDC=0
.ENDS
***************************************
.SUBCKT ICV_29
** N=2 EP=0 IP=4 FDC=0
.ENDS
***************************************
.SUBCKT ICV_30
** N=2 EP=0 IP=4 FDC=0
.ENDS
***************************************
.SUBCKT ICV_31
** N=2 EP=0 IP=4 FDC=0
.ENDS
***************************************
.SUBCKT ICV_32
** N=2 EP=0 IP=4 FDC=0
.ENDS
***************************************
.SUBCKT ICV_33
** N=2 EP=0 IP=4 FDC=0
.ENDS
***************************************
.SUBCKT ICV_34
** N=2 EP=0 IP=4 FDC=0
.ENDS
***************************************
.SUBCKT ICV_35
** N=2 EP=0 IP=4 FDC=0
.ENDS
***************************************
.SUBCKT ICV_36
** N=2 EP=0 IP=4 FDC=0
.ENDS
***************************************
.SUBCKT ICV_37
** N=2 EP=0 IP=4 FDC=0
.ENDS
***************************************
.SUBCKT ICV_38
** N=2 EP=0 IP=4 FDC=0
.ENDS
***************************************
.SUBCKT ICV_39
** N=2 EP=0 IP=4 FDC=0
.ENDS
***************************************
.SUBCKT ICV_40
** N=2 EP=0 IP=4 FDC=0
.ENDS
***************************************
.SUBCKT ICV_41
** N=2 EP=0 IP=4 FDC=0
.ENDS
***************************************
.SUBCKT ICV_42
** N=2 EP=0 IP=4 FDC=0
.ENDS
***************************************
.SUBCKT ICV_43
** N=2 EP=0 IP=4 FDC=0
.ENDS
***************************************
.SUBCKT ICV_44
** N=2 EP=0 IP=4 FDC=0
.ENDS
***************************************
.SUBCKT ICV_45
** N=2 EP=0 IP=4 FDC=0
.ENDS
***************************************
.SUBCKT ICV_46
** N=2 EP=0 IP=4 FDC=0
.ENDS
***************************************
.SUBCKT ICV_47
** N=2 EP=0 IP=4 FDC=0
.ENDS
***************************************
.SUBCKT ICV_48
** N=2 EP=0 IP=4 FDC=0
.ENDS
***************************************
.SUBCKT ICV_49
** N=2 EP=0 IP=4 FDC=0
.ENDS
***************************************
.SUBCKT ICV_50
** N=2 EP=0 IP=4 FDC=0
.ENDS
***************************************
.SUBCKT ICV_51
** N=2 EP=0 IP=4 FDC=0
.ENDS
***************************************
.SUBCKT ICV_52
** N=2 EP=0 IP=4 FDC=0
.ENDS
***************************************
.SUBCKT ICV_53
** N=2 EP=0 IP=4 FDC=0
.ENDS
***************************************
.SUBCKT ICV_54
** N=2 EP=0 IP=4 FDC=0
.ENDS
***************************************
.SUBCKT ICV_55
** N=2 EP=0 IP=4 FDC=0
.ENDS
***************************************
.SUBCKT ICV_56
** N=2 EP=0 IP=4 FDC=0
.ENDS
***************************************
.SUBCKT an02d1 A1 A2 VDD VSS Z
** N=7 EP=5 IP=0 FDC=6
M0 7 A1 6 VSS N L=1.8e-07 W=8.8e-07 $X=630 $Y=1080 $D=26
M1 VSS A2 7 VSS N L=1.8e-07 W=8.8e-07 $X=1110 $Y=1080 $D=26
M2 Z 6 VSS VSS N L=1.8e-07 W=1e-06 $X=1910 $Y=960 $D=26
M3 6 A1 VDD VDD P L=1.8e-07 W=8.8e-07 $X=480 $Y=3040 $D=38
M4 VDD A2 6 VDD P L=1.8e-07 W=8.8e-07 $X=1220 $Y=3040 $D=38
M5 Z 6 VDD VDD P L=1.8e-07 W=1.48e-06 $X=1870 $Y=3040 $D=38
.ENDS
***************************************
.SUBCKT dfnrn1 CP D VSS VDD QN
** N=14 EP=5 IP=0 FDC=24
M0 VSS CP 6 VSS N L=1.8e-07 W=5.2e-07 $X=630 $Y=1420 $D=26
M1 7 6 VSS VSS N L=1.8e-07 W=5.2e-07 $X=1250 $Y=1420 $D=26
M2 8 D VSS VSS N L=1.8e-07 W=4.8e-07 $X=2690 $Y=1590 $D=26
M3 IPM 6 8 VSS N L=1.8e-07 W=4.8e-07 $X=3430 $Y=1590 $D=26
M4 9 7 IPM VSS N L=1.8e-07 W=4.8e-07 $X=4170 $Y=1590 $D=26
M5 VSS 11 9 VSS N L=1.8e-07 W=5.9e-07 $X=4910 $Y=1590 $D=26
M6 11 IPM VSS VSS N L=1.8e-07 W=5.9e-07 $X=5550 $Y=1590 $D=26
M7 IPS 7 11 VSS N L=1.8e-07 W=5.9e-07 $X=6290 $Y=1590 $D=26
M8 12 6 IPS VSS N L=1.8e-07 W=5.9e-07 $X=7030 $Y=1590 $D=26
M9 VSS 13 12 VSS N L=1.8e-07 W=4.3e-07 $X=7770 $Y=1590 $D=26
M10 VSS IPS 13 VSS N L=1.8e-07 W=4.8e-07 $X=9090 $Y=1540 $D=26
M11 QN IPS VSS VSS N L=1.8e-07 W=1e-06 $X=9710 $Y=1020 $D=26
M12 VDD CP 6 VDD P L=1.8e-07 W=6.8e-07 $X=630 $Y=3040 $D=38
M13 7 6 VDD VDD P L=1.8e-07 W=6.8e-07 $X=1250 $Y=3040 $D=38
M14 8 D VDD VDD P L=1.8e-07 W=5.2e-07 $X=2900 $Y=3310 $D=38
M15 IPM 7 8 VDD P L=1.8e-07 W=6e-07 $X=3640 $Y=3230 $D=38
M16 9 6 IPM VDD P L=1.8e-07 W=6e-07 $X=4380 $Y=3230 $D=38
M17 VDD 11 9 VDD P L=1.8e-07 W=5.1e-07 $X=5120 $Y=3320 $D=38
M18 11 IPM VDD VDD P L=1.8e-07 W=9.8e-07 $X=5970 $Y=3320 $D=38
M19 IPS 6 11 VDD P L=1.8e-07 W=9.8e-07 $X=6710 $Y=3320 $D=38
M20 12 7 IPS VDD P L=1.8e-07 W=6.8e-07 $X=7450 $Y=3920 $D=38
M21 VDD 13 12 VDD P L=1.8e-07 W=5.2e-07 $X=8190 $Y=4080 $D=38
M22 VDD IPS 13 VDD P L=1.8e-07 W=5.2e-07 $X=9090 $Y=3040 $D=38
M23 QN IPS VDD VDD P L=1.85115e-07 W=1.51042e-06 $X=9710 $Y=3040 $D=38
.ENDS
***************************************
.SUBCKT dfnrq1 CP D VSS VDD Q
** N=14 EP=5 IP=0 FDC=24
M0 VSS CP 6 VSS N L=1.8e-07 W=5.2e-07 $X=630 $Y=1420 $D=26
M1 7 6 VSS VSS N L=1.8e-07 W=5.2e-07 $X=1250 $Y=1420 $D=26
M2 8 D VSS VSS N L=1.8e-07 W=4.8e-07 $X=2690 $Y=1590 $D=26
M3 IPM 6 8 VSS N L=1.8e-07 W=4.8e-07 $X=3430 $Y=1590 $D=26
M4 9 7 IPM VSS N L=1.8e-07 W=4.8e-07 $X=4170 $Y=1590 $D=26
M5 VSS 11 9 VSS N L=1.8e-07 W=5.9e-07 $X=4910 $Y=1590 $D=26
M6 11 IPM VSS VSS N L=1.8e-07 W=5.9e-07 $X=5550 $Y=1590 $D=26
M7 IPS 7 11 VSS N L=1.8e-07 W=5.9e-07 $X=6290 $Y=1590 $D=26
M8 12 6 IPS VSS N L=1.8e-07 W=5.9e-07 $X=7030 $Y=1590 $D=26
M9 VSS 13 12 VSS N L=1.8e-07 W=4.3e-07 $X=7770 $Y=1590 $D=26
M10 VSS IPS 13 VSS N L=1.8e-07 W=4.8e-07 $X=9090 $Y=1540 $D=26
M11 Q 13 VSS VSS N L=1.8e-07 W=1e-06 $X=9830 $Y=1020 $D=26
M12 VDD CP 6 VDD P L=1.8e-07 W=6.8e-07 $X=630 $Y=3040 $D=38