// File: C2S0233.pex.netlist
// Created: Tue Jun 23 19:03:19 2026
// Program "Calibre xRC"
// Version "v2022.4_37.20"
// 
simulator lang=spectre
sc options scale=1u
include "C2S0233.pex.netlist.pex"
subckt mac_4x4_wrapper_chip (  VDDO_CORE VDD_CORE VSSO_CORE VSS_CORE )
// 
// VSS_CORE	VSS_CORE
// VSSO_CORE	VSSO_CORE
// VDD_CORE	VDD_CORE
// VDDO_CORE	VDDO_CORE
mXpc3c01_clk_buf\/M10 ( N_Xpc3c01_clk_buf\/NODE_Xpc3c01_clk_buf\/M10_d \
 N_clk_pad_Xpc3c01_clk_buf\/M10_g N_VDD_CORE_Xpc3c01_clk_buf\/M10_s \
 N_VDD_CORE_Xpc3c01_clk_buf\/M10_b ) phv l=0.36 w=23.5 ad=9.635 as=14.57 \
 pd=24.32 ps=48.24 postlayout=1 //x=201.45 //y=478.33
mXpc3c01_clk_buf\/M12 ( N_Xpc3c01_clk_buf\/NODE_Xpc3c01_clk_buf\/M10_d \
 N_clk_pad_Xpc3c01_clk_buf\/M12_g N_VDD_CORE_Xpc3c01_clk_buf\/M12_s \
 N_VDD_CORE_Xpc3c01_clk_buf\/M10_b ) phv l=0.36 w=23.5 ad=9.635 as=14.57 \
 pd=24.32 ps=48.24 postlayout=1 //x=201.45 //y=479.51
mXpc3c01_clk_buf\/M4 ( N_clk_buf_Xpc3c01_clk_buf\/M4_d \
 N_Xpc3c01_clk_buf\/NODE_Xpc3c01_clk_buf\/M4_g \
 N_VDD_CORE_Xpc3c01_clk_buf\/M4_s N_VDD_CORE_Xpc3c01_clk_buf\/M4_b ) p18 \
 l=0.18 w=32.34 ad=16.17 as=22.9614 pd=33.34 ps=66.1 postlayout=1 //x=238.46 \
 //y=477.24
mXpc3c01_clk_buf\/M5 ( N_clk_buf_Xpc3c01_clk_buf\/M4_d \
 N_Xpc3c01_clk_buf\/NODE_Xpc3c01_clk_buf\/M5_g \
 N_VDD_CORE_Xpc3c01_clk_buf\/M5_s N_VDD_CORE_Xpc3c01_clk_buf\/M4_b ) p18 \
 l=0.18 w=32.34 ad=16.17 as=16.17 pd=33.34 ps=33.34 postlayout=1 //x=238.46 \
 //y=478.42
mXpc3c01_clk_buf\/M8 ( N_clk_buf_Xpc3c01_clk_buf\/M8_d \
 N_Xpc3c01_clk_buf\/NODE_Xpc3c01_clk_buf\/M8_g \
 N_VDD_CORE_Xpc3c01_clk_buf\/M5_s N_VDD_CORE_Xpc3c01_clk_buf\/M4_b ) p18 \
 l=0.18 w=32.34 ad=16.17 as=16.17 pd=33.34 ps=33.34 postlayout=1 //x=238.46 \
 //y=479.6
mXpc3c01_clk_buf\/M9 ( N_clk_buf_Xpc3c01_clk_buf\/M8_d \
 N_Xpc3c01_clk_buf\/NODE_Xpc3c01_clk_buf\/M9_g \
 N_VDD_CORE_Xpc3c01_clk_buf\/M9_s N_VDD_CORE_Xpc3c01_clk_buf\/M4_b ) p18 \
 l=0.18 w=32.34 ad=16.17 as=22.9614 pd=33.34 ps=66.1 postlayout=1 //x=238.46 \
 //y=480.78
dXpc3c01_clk_buf\/D1 ( N_VSS_CORE_Xpc3o01_mac_out11\/M29_b \
 N_clk_pad_Xpc3c01_clk_buf\/D1_neg ) dn18  area=0.4624 pj=2.72 //x=171.65 \
 //y=497.64
mXpc3o01_mac_out11\/M29 ( N_Xpc3o01_mac_out11\/ngate_Xpc3o01_mac_out11\/M29_d \
 N_Xpc3o01_mac_out11\/U28_ISHF_Xpc3o01_mac_out11\/M29_g \
 N_VSSO_CORE_Xpc3o01_mac_out11\/M29_s N_VSS_CORE_Xpc3o01_mac_out11\/M29_b ) \
 nhv l=0.36 w=10 ad=4.1 as=6.6 pd=10.82 ps=21.32 postlayout=1 //x=1825.42 \
 //y=1615.11
mXpc3o01_mac_out11\/M29\@2 ( \
 N_Xpc3o01_mac_out11\/ngate_Xpc3o01_mac_out11\/M29_d \
 N_Xpc3o01_mac_out11\/U28_ISHF_Xpc3o01_mac_out11\/M29\@2_g \
 N_VSSO_CORE_Xpc3o01_mac_out11\/M29\@2_s N_VSS_CORE_Xpc3o01_mac_out11\/M29_b ) \
 nhv l=0.36 w=10 ad=4.1 as=6.6 pd=10.82 ps=21.32 postlayout=1 //x=1825.42 \
 //y=1616.29
mXpc3o01_mac_out11\/M30 ( N_Xpc3o01_mac_out11\/pgate_Xpc3o01_mac_out11\/M30_d \
 N_Xpc3o01_mac_out11\/net_m30_VDDO_res_Xpc3o01_mac_out11\/M30_g \
 N_Xpc3o01_mac_out11\/ngate_Xpc3o01_mac_out11\/M30_s \
 N_VSS_CORE_Xpc3o01_mac_out11\/M29_b ) nhv l=0.36 w=10 ad=6.2 as=4.1 pd=21.24 \
 ps=10.82 postlayout=1 //x=1825.22 //y=1620.19
mXpc3o01_mac_out11\/M30\@3 ( \
 N_Xpc3o01_mac_out11\/pgate_Xpc3o01_mac_out11\/M30\@3_d \
 N_Xpc3o01_mac_out11\/net_m30_VDDO_res_Xpc3o01_mac_out11\/M30\@3_g \
 N_Xpc3o01_mac_out11\/ngate_Xpc3o01_mac_out11\/M30_s \
 N_VSS_CORE_Xpc3o01_mac_out11\/M29_b ) nhv l=0.36 w=10 ad=4.1 as=4.1 pd=10.82 \
 ps=10.82 postlayout=1 //x=1825.22 //y=1621.37
mXpc3o01_mac_out11\/M30\@2 ( \
 N_Xpc3o01_mac_out11\/pgate_Xpc3o01_mac_out11\/M30\@3_d \
 N_Xpc3o01_mac_out11\/net_m30_VDDO_res_Xpc3o01_mac_out11\/M30\@2_g \
 N_Xpc3o01_mac_out11\/ngate_Xpc3o01_mac_out11\/M30\@2_s \
 N_VSS_CORE_Xpc3o01_mac_out11\/M29_b ) nhv l=0.36 w=10 ad=4.1 as=6.2 pd=10.82 \
 ps=21.24 postlayout=1 //x=1825.22 //y=1622.55
mXpc3o01_mac_out11\/M37 ( N_VDDO_CORE_Xpc3o01_mac_out11\/M37_d \
 N_Xpc3o01_mac_out11\/U28_U16_MN1_drai_Xpc3o01_mac_out11\/M37_g \
 N_Xpc3o01_mac_out11\/U28_U16_MPLL1_dr_Xpc3o01_mac_out11\/M37_s \
 N_VSS_CORE_Xpc3o01_mac_out11\/M29_b ) nhv l=0.36 w=5 ad=3.1 as=3.1 pd=11.24 \
 ps=11.24 postlayout=1 //x=1829.25 //y=1634.95
mXpc3o01_mac_out11\/M35 ( \
 N_Xpc3o01_mac_out11\/U28_U16_MPLL1_dr_Xpc3o01_mac_out11\/M35_d \
 N_FE_OFN4_mac_out_pad_11_Xpc3o01_mac_out11\/M35_g \
 N_VSSO_CORE_Xpc3o01_mac_out11\/M35_s N_VSS_CORE_Xpc3o01_mac_out11\/M29_b ) \
 nhv l=0.36 w=10 ad=6.2 as=4.1 pd=21.24 ps=10.82 postlayout=1 //x=1825.47 \
 //y=1635
mXpc3o01_mac_out11\/M35\@2 ( \
 N_Xpc3o01_mac_out11\/U28_U16_MPLL1_dr_Xpc3o01_mac_out11\/M35\@2_d \
 N_FE_OFN4_mac_out_pad_11_Xpc3o01_mac_out11\/M35\@2_g \
 N_VSSO_CORE_Xpc3o01_mac_out11\/M35_s N_VSS_CORE_Xpc3o01_mac_out11\/M29_b ) \
 nhv l=0.36 w=10 ad=6.2 as=4.1 pd=21.24 ps=10.82 postlayout=1 //x=1825.47 \
 //y=1636.18
mXpc3o01_mac_out11\/M36 ( \
 N_Xpc3o01_mac_out11\/U28_ISHF_Xpc3o01_mac_out11\/M36_d \
 N_Xpc3o01_mac_out11\/U28_U16_MN1_drai_Xpc3o01_mac_out11\/M36_g \
 N_VSSO_CORE_Xpc3o01_mac_out11\/M36_s N_VSS_CORE_Xpc3o01_mac_out11\/M29_b ) \
 nhv l=0.36 w=10 ad=6.2 as=4.1 pd=21.24 ps=10.82 postlayout=1 //x=1825.42 \
 //y=1638.7
mXpc3o01_mac_out11\/M36\@2 ( \
 N_Xpc3o01_mac_out11\/U28_ISHF_Xpc3o01_mac_out11\/M36\@2_d \
 N_Xpc3o01_mac_out11\/U28_U16_MN1_drai_Xpc3o01_mac_out11\/M36\@2_g \
 N_VSSO_CORE_Xpc3o01_mac_out11\/M36_s N_VSS_CORE_Xpc3o01_mac_out11\/M29_b ) \
 nhv l=0.36 w=10 ad=6.2 as=4.1 pd=21.24 ps=10.82 postlayout=1 //x=1825.42 \
 //y=1639.88
mXpc3o01_mac_out11\/M38 ( \
 N_Xpc3o01_mac_out11\/U28_U16_MN1_drai_Xpc3o01_mac_out11\/M38_d \
 N_FE_OFN4_mac_out_pad_11_Xpc3o01_mac_out11\/M38_g \
 N_VSS_CORE_Xpc3o01_mac_out11\/M38_s N_VSS_CORE_Xpc3o01_mac_out11\/M29_b ) n18 \
 l=0.18 w=5 ad=2.925 as=2.925 pd=11.17 ps=11.17 postlayout=1 //x=1823.31 \
 //y=1648.14
mXpc3o01_mac_out11\/M31 ( N_Xpc3o01_mac_out11\/pgate_Xpc3o01_mac_out11\/M31_d \
 N_Xpc3o01_mac_out11\/U28_ISHF_Xpc3o01_mac_out11\/M31_g \
 N_VDDO_CORE_Xpc3o01_mac_out11\/M31_s N_VDDO_CORE_Xpc3o01_mac_out11\/M31_b ) \
 phv l=0.36 w=20 ad=13.2 as=8.2 pd=41.32 ps=20.82 postlayout=1 //x=1796.51 \
 //y=1615.28
mXpc3o01_mac_out11\/M31\@2 ( \
 N_Xpc3o01_mac_out11\/pgate_Xpc3o01_mac_out11\/M31\@2_d \
 N_Xpc3o01_mac_out11\/U28_ISHF_Xpc3o01_mac_out11\/M31\@2_g \
 N_VDDO_CORE_Xpc3o01_mac_out11\/M31_s N_VDDO_CORE_Xpc3o01_mac_out11\/M31_b ) \
 phv l=0.36 w=20 ad=12.4 as=8.2 pd=41.24 ps=20.82 postlayout=1 //x=1796.51 \
 //y=1616.46
mXpc3o01_mac_out11\/M32 ( N_Xpc3o01_mac_out11\/ngate_Xpc3o01_mac_out11\/M32_d \
 N_Xpc3o01_mac_out11\/net_m32_VSSO_res_Xpc3o01_mac_out11\/M32_g \
 N_Xpc3o01_mac_out11\/pgate_Xpc3o01_mac_out11\/M32_s \
 N_VDDO_CORE_Xpc3o01_mac_out11\/M31_b ) phv l=0.36 w=10 ad=4.1 as=6.2 pd=10.82 \
 ps=21.24 postlayout=1 //x=1786.58 //y=1620.29
mXpc3o01_mac_out11\/M32\@3 ( \
 N_Xpc3o01_mac_out11\/ngate_Xpc3o01_mac_out11\/M32_d \
 N_Xpc3o01_mac_out11\/net_m32_VSSO_res_Xpc3o01_mac_out11\/M32\@3_g \
 N_Xpc3o01_mac_out11\/pgate_Xpc3o01_mac_out11\/M32\@3_s \
 N_VDDO_CORE_Xpc3o01_mac_out11\/M31_b ) phv l=0.36 w=10 ad=4.1 as=4.1 pd=10.82 \
 ps=10.82 postlayout=1 //x=1786.58 //y=1621.47
mXpc3o01_mac_out11\/M32\@2 ( \
 N_Xpc3o01_mac_out11\/ngate_Xpc3o01_mac_out11\/M32\@2_d \
 N_Xpc3o01_mac_out11\/net_m32_VSSO_res_Xpc3o01_mac_out11\/M32\@2_g \
 N_Xpc3o01_mac_out11\/pgate_Xpc3o01_mac_out11\/M32\@3_s \
 N_VDDO_CORE_Xpc3o01_mac_out11\/M31_b ) phv l=0.36 w=10 ad=6.2 as=4.1 pd=21.24 \
 ps=10.82 postlayout=1 //x=1786.58 //y=1622.65
mXpc3o01_mac_out11\/M33 ( \
 N_Xpc3o01_mac_out11\/U28_U16_MPLL1_dr_Xpc3o01_mac_out11\/M33_d \
 N_Xpc3o01_mac_out11\/U28_ISHF_Xpc3o01_mac_out11\/M33_g \
 N_VDDO_CORE_Xpc3o01_mac_out11\/M33_s N_VDDO_CORE_Xpc3o01_mac_out11\/M31_b ) \
 phv l=0.36 w=7.2 ad=4.464 as=2.952 pd=15.64 ps=8.02 postlayout=1 //x=1797.84 \
 //y=1634.12
mXpc3o01_mac_out11\/M34 ( \
 N_Xpc3o01_mac_out11\/U28_ISHF_Xpc3o01_mac_out11\/M34_d \
 N_Xpc3o01_mac_out11\/U28_U16_MPLL1_dr_Xpc3o01_mac_out11\/M34_g \
 N_VDDO_CORE_Xpc3o01_mac_out11\/M33_s N_VDDO_CORE_Xpc3o01_mac_out11\/M31_b ) \
 phv l=0.36 w=7.2 ad=4.464 as=2.952 pd=15.64 ps=8.02 postlayout=1 //x=1797.84 \
 //y=1635.3
mXpc3o01_mac_out11\/M39 ( \
 N_Xpc3o01_mac_out11\/U28_U16_MN1_drai_Xpc3o01_mac_out11\/M39_d \
 N_FE_OFN4_mac_out_pad_11_Xpc3o01_mac_out11\/M39_g \
 N_VDD_CORE_Xpc3o01_mac_out11\/M39_s N_VDD_CORE_Xpc3o01_mac_out11\/M39_b ) p18 \
 l=0.18 w=5 ad=1.4 as=2.45 pd=5.56 ps=10.98 postlayout=1 //x=1784.85 //y=1661.71
mXpc3o01_mac_out11\/M39\@2 ( \
 N_Xpc3o01_mac_out11\/U28_U16_MN1_drai_Xpc3o01_mac_out11\/M39_d \
 N_FE_OFN4_mac_out_pad_11_Xpc3o01_mac_out11\/M39\@2_g \
 N_VDD_CORE_Xpc3o01_mac_out11\/M39\@2_s N_VDD_CORE_Xpc3o01_mac_out11\/M39_b ) \
 p18 l=0.18 w=5 ad=1.4 as=3.1 pd=5.56 ps=11.24 postlayout=1 //x=1784.85 \
 //y=1662.45
dXpc3o01_mac_out11\/D40 ( N_VSS_CORE_Xpc3o01_mac_out11\/M29_b \
 N_FE_OFN4_mac_out_pad_11_Xpc3o01_mac_out11\/D40_neg ) dn18  area=0.25 pj=2 \
 //x=1824.87 //y=1649.62
XXpc3o01_mac_out11\/RM30 (  \
 N_Xpc3o01_mac_out11\/net_m30_VDDO_res_Xpc3o01_mac_out11\/RM30_pos \
 N_VDDO_CORE_Xpc3o01_mac_out11\/RM30_neg ) rpmpoly2t r=1180.05 w=2 l=6.455  \
 //x=1828.07 //y=1620.16
XXpc3o01_mac_out11\/RM32 (  \
 N_Xpc3o01_mac_out11\/net_m32_VSSO_res_Xpc3o01_mac_out11\/RM32_pos \
 N_VSSO_CORE_Xpc3o01_mac_out11\/RM32_neg ) rpmpoly2t r=1180.05 w=2 l=6.455  \
 //x=1789.75 //y=1622.54
mXpc3o01_mac_out15\/M5 ( N_X8\/X117\/noxref_PAD_Xpc3o01_mac_out15\/M6_d \
 N_Xpc3o01_mac_out15\/U29_U74\$9_gate_Xpc3o01_mac_out15\/M5_g \
 N_VSSO_CORE_Xpc3o01_mac_out15\/M5_s N_VSSO_CORE_Xpc3o01_mac_out15\/M6_b ) nhv \
 l=0.5 w=30 ad=100.8 as=25.8 pd=36.72 ps=31.72 postlayout=1 //x=1874.25 \
 //y=1616.43
mXpc3o01_mac_out15\/M6 ( N_X8\/X117\/noxref_PAD_Xpc3o01_mac_out15\/M6_d \
 N_Xpc3o01_mac_out15\/U29_U74\$9_gate_Xpc3o01_mac_out15\/M6_g \
 N_VSSO_CORE_Xpc3o01_mac_out15\/M6_s N_VSSO_CORE_Xpc3o01_mac_out15\/M6_b ) nhv \
 l=0.5 w=30 ad=100.8 as=39.9 pd=36.72 ps=62.66 postlayout=1 //x=1874.25 \
 //y=1609.21
mXpc3o01_mac_out15\/M7 ( N_X8\/X117\/noxref_PAD_Xpc3o01_mac_out15\/M8_d \
 N_Xpc3o01_mac_out15\/U29_U74\$9_gate_Xpc3o01_mac_out15\/M7_g \
 N_VSSO_CORE_Xpc3o01_mac_out15\/M7_s N_VSSO_CORE_Xpc3o01_mac_out15\/M6_b ) nhv \
 l=0.5 w=30 ad=100.8 as=25.8 pd=36.72 ps=31.72 postlayout=1 //x=1874.25 \
 //y=1625.87
mXpc3o01_mac_out15\/M8 ( N_X8\/X117\/noxref_PAD_Xpc3o01_mac_out15\/M8_d \
 N_Xpc3o01_mac_out15\/U29_U74\$9_gate_Xpc3o01_mac_out15\/M8_g \
 N_VSSO_CORE_Xpc3o01_mac_out15\/M5_s N_VSSO_CORE_Xpc3o01_mac_out15\/M6_b ) nhv \
 l=0.5 w=30 ad=100.8 as=25.8 pd=36.72 ps=31.72 postlayout=1 //x=1874.25 \
 //y=1618.65
mXpc3o01_mac_out15\/M9 ( N_X8\/X117\/noxref_PAD_Xpc3o01_mac_out15\/M10_d \
 N_Xpc3o01_mac_out15\/U29_U74\$9_gate_Xpc3o01_mac_out15\/M9_g \
 N_VSSO_CORE_Xpc3o01_mac_out15\/M9_s N_VSSO_CORE_Xpc3o01_mac_out15\/M6_b ) nhv \
 l=0.5 w=30 ad=100.8 as=25.8 pd=36.72 ps=31.72 postlayout=1 //x=1874.25 \
 //y=1635.31
mXpc3o01_mac_out15\/M10 ( N_X8\/X117\/noxref_PAD_Xpc3o01_mac_out15\/M10_d \
 N_Xpc3o01_mac_out15\/U29_U74\$9_gate_Xpc3o01_mac_out15\/M10_g \
 N_VSSO_CORE_Xpc3o01_mac_out15\/M7_s N_VSSO_CORE_Xpc3o01_mac_out15\/M6_b ) nhv \
 l=0.5 w=30 ad=100.8 as=25.8 pd=36.72 ps=31.72 postlayout=1 //x=1874.25 \
 //y=1628.09
mXpc3o01_mac_out15\/M11 ( N_X8\/X117\/noxref_PAD_Xpc3o01_mac_out15\/M12_d \
 N_Xpc3o01_mac_out15\/U29_U74\$9_gate_Xpc3o01_mac_out15\/M11_g \
 N_VSSO_CORE_Xpc3o01_mac_out15\/M11_s N_VSSO_CORE_Xpc3o01_mac_out15\/M6_b ) \
 nhv l=0.5 w=30 ad=100.8 as=25.8 pd=36.72 ps=31.72 postlayout=1 //x=1874.25 \
 //y=1644.75
mXpc3o01_mac_out15\/M12 ( N_X8\/X117\/noxref_PAD_Xpc3o01_mac_out15\/M12_d \
 N_Xpc3o01_mac_out15\/U29_U74\$9_gate_Xpc3o01_mac_out15\/M12_g \
 N_VSSO_CORE_Xpc3o01_mac_out15\/M9_s N_VSSO_CORE_Xpc3o01_mac_out15\/M6_b ) nhv \
 l=0.5 w=30 ad=100.8 as=25.8 pd=36.72 ps=31.72 postlayout=1 //x=1874.25 \
 //y=1637.53
mXpc3o01_mac_out11\/M3 ( N_X8\/X117\/noxref_PAD_Xpc3o01_mac_out15\/M13_d \
 N_Xpc3o01_mac_out11\/ngate_Xpc3o01_mac_out11\/M3_g \
 N_VSSO_CORE_Xpc3o01_mac_out11\/M3_s N_VSSO_CORE_Xpc3o01_mac_out15\/M6_b ) nhv \
 l=0.5 w=30 ad=100.8 as=25.8 pd=36.72 ps=31.72 postlayout=1 //x=1874.25 \
 //y=1654.19
mXpc3o01_mac_out15\/M13 ( N_X8\/X117\/noxref_PAD_Xpc3o01_mac_out15\/M13_d \
 N_Xpc3o01_mac_out15\/U29_U74\$9_gate_Xpc3o01_mac_out15\/M13_g \
 N_VSSO_CORE_Xpc3o01_mac_out15\/M11_s N_VSSO_CORE_Xpc3o01_mac_out15\/M6_b ) \
 nhv l=0.5 w=30 ad=100.8 as=25.8 pd=36.72 ps=31.72 postlayout=1 //x=1874.25 \
 //y=1646.97
mXpc3o01_mac_out15\/M14 ( N_X8\/X117\/noxref_PAD_Xpc3o01_mac_out11\/M4_d \
 N_Xpc3o01_mac_out15\/U29_U74\$9_gate_Xpc3o01_mac_out15\/M14_g \
 N_VSSO_CORE_Xpc3o01_mac_out15\/M14_s N_VSSO_CORE_Xpc3o01_mac_out15\/M6_b ) \
 nhv l=0.5 w=30 ad=100.8 as=39.9 pd=36.72 ps=62.66 postlayout=1 //x=1874.25 \
 //y=1663.63
mXpc3o01_mac_out11\/M4 ( N_X8\/X117\/noxref_PAD_Xpc3o01_mac_out11\/M4_d \
 N_Xpc3o01_mac_out11\/ngate_Xpc3o01_mac_out11\/M4_g \
 N_VSSO_CORE_Xpc3o01_mac_out11\/M3_s N_VSSO_CORE_Xpc3o01_mac_out15\/M6_b ) nhv \
 l=0.5 w=30 ad=100.8 as=25.8 pd=36.72 ps=31.72 postlayout=1 //x=1874.25 \
 //y=1656.41
mXpc3o01_mac_out9\/M17 ( N_VDDO_CORE_Xpc3o01_mac_out9\/M17_d \
 N_Xpc3o01_mac_out9\/U29_U37_r2_Xpc3o01_mac_out9\/M17_g \
 N_X8\/X117\/noxref_PAD_Xpc3o01_mac_out9\/M17_s \
 N_VDDO_CORE_Xpc3o01_mac_out9\/M19_b ) phv l=0.4 w=52 ad=73.84 as=120.64 \
 pd=106.84 ps=56.64 postlayout=1 //x=1766.58 //y=1610.66
mXpc3o01_mac_out9\/M18 ( N_VDDO_CORE_Xpc3o01_mac_out9\/M19_d \
 N_Xpc3o01_mac_out9\/U29_U37_r2_Xpc3o01_mac_out9\/M18_g \
 N_X8\/X117\/noxref_PAD_Xpc3o01_mac_out9\/M17_s \
 N_VDDO_CORE_Xpc3o01_mac_out9\/M19_b ) phv l=0.4 w=52 ad=47.32 as=120.64 \
 pd=53.82 ps=56.64 postlayout=1 //x=1761.54 //y=1610.66
mXpc3o01_mac_out11\/M15 ( N_VDDO_CORE_Xpc3o01_mac_out9\/M26_d \
 N_Xpc3o01_mac_out11\/pgate_Xpc3o01_mac_out11\/M15_g \
 N_X8\/X117\/noxref_PAD_Xpc3o01_mac_out11\/M15_s \
 N_VDDO_CORE_Xpc3o01_mac_out9\/M19_b ) phv l=0.4 w=52 ad=47.32 as=120.64 \
 pd=53.82 ps=56.64 postlayout=1 //x=1730.28 //y=1610.66
mXpc3o01_mac_out11\/M16 ( N_VDDO_CORE_Xpc3o01_mac_out11\/M16_d \
 N_Xpc3o01_mac_out11\/pgate_Xpc3o01_mac_out11\/M16_g \
 N_X8\/X117\/noxref_PAD_Xpc3o01_mac_out11\/M15_s \
 N_VDDO_CORE_Xpc3o01_mac_out9\/M19_b ) phv l=0.4 w=52 ad=73.84 as=120.64 \
 pd=106.84 ps=56.64 postlayout=1 //x=1725.24 //y=1610.66
mXpc3o01_mac_out9\/M19 ( N_VDDO_CORE_Xpc3o01_mac_out9\/M19_d \
 N_Xpc3o01_mac_out9\/U29_U37_r2_Xpc3o01_mac_out9\/M19_g \
 N_X8\/X117\/noxref_PAD_Xpc3o01_mac_out9\/M19_s \
 N_VDDO_CORE_Xpc3o01_mac_out9\/M19_b ) phv l=0.4 w=52 ad=47.32 as=120.64 \
 pd=53.82 ps=56.64 postlayout=1 //x=1758.92 //y=1610.66
mXpc3o01_mac_out9\/M20 ( N_VDDO_CORE_Xpc3o01_mac_out9\/M20_d \
 N_Xpc3o01_mac_out9\/U29_U37_r2_Xpc3o01_mac_out9\/M20_g \
 N_X8\/X117\/noxref_PAD_Xpc3o01_mac_out9\/M19_s \
 N_VDDO_CORE_Xpc3o01_mac_out9\/M19_b ) phv l=0.4 w=52 ad=47.32 as=120.64 \
 pd=53.82 ps=56.64 postlayout=1 //x=1754.28 //y=1610.66
mXpc3o01_mac_out9\/M21 ( N_VDDO_CORE_Xpc3o01_mac_out9\/M20_d \
 N_Xpc3o01_mac_out9\/U29_U37_r2_Xpc3o01_mac_out9\/M21_g \
 N_X8\/X117\/noxref_PAD_Xpc3o01_mac_out9\/M21_s \
 N_VDDO_CORE_Xpc3o01_mac_out9\/M19_b ) phv l=0.4 w=52 ad=47.32 as=120.64 \
 pd=53.82 ps=56.64 postlayout=1 //x=1751.66 //y=1610.66
mXpc3o01_mac_out9\/M22 ( N_VDDO_CORE_Xpc3o01_mac_out9\/M22_d \
 N_Xpc3o01_mac_out9\/U29_U37_r2_Xpc3o01_mac_out9\/M22_g \
 N_X8\/X117\/noxref_PAD_Xpc3o01_mac_out9\/M21_s \
 N_VDDO_CORE_Xpc3o01_mac_out9\/M19_b ) phv l=0.4 w=52 ad=47.32 as=120.64 \
 pd=53.82 ps=56.64 postlayout=1 //x=1747.02 //y=1610.66
mXpc3o01_mac_out9\/M23 ( N_VDDO_CORE_Xpc3o01_mac_out9\/M22_d \
 N_Xpc3o01_mac_out9\/U29_U37_r2_Xpc3o01_mac_out9\/M23_g \
 N_X8\/X117\/noxref_PAD_Xpc3o01_mac_out9\/M23_s \
 N_VDDO_CORE_Xpc3o01_mac_out9\/M19_b ) phv l=0.4 w=52 ad=47.32 as=120.64 \
 pd=53.82 ps=56.64 postlayout=1 //x=1744.4 //y=1610.66
mXpc3o01_mac_out9\/M24 ( N_VDDO_CORE_Xpc3o01_mac_out9\/M24_d \
 N_Xpc3o01_mac_out9\/U29_U37_r2_Xpc3o01_mac_out9\/M24_g \
 N_X8\/X117\/noxref_PAD_Xpc3o01_mac_out9\/M23_s \
 N_VDDO_CORE_Xpc3o01_mac_out9\/M19_b ) phv l=0.4 w=52 ad=47.32 as=120.64 \
 pd=53.82 ps=56.64 postlayout=1 //x=1739.76 //y=1610.66
mXpc3o01_mac_out9\/M25 ( N_VDDO_CORE_Xpc3o01_mac_out9\/M24_d \
 N_Xpc3o01_mac_out9\/U29_U37_r2_Xpc3o01_mac_out9\/M25_g \
 N_X8\/X117\/noxref_PAD_Xpc3o01_mac_out9\/M25_s \
 N_VDDO_CORE_Xpc3o01_mac_out9\/M19_b ) phv l=0.4 w=52 ad=47.32 as=120.64 \
 pd=53.82 ps=56.64 postlayout=1 //x=1737.14 //y=1610.66
mXpc3o01_mac_out9\/M26 ( N_VDDO_CORE_Xpc3o01_mac_out9\/M26_d \
 N_Xpc3o01_mac_out9\/U29_U37_r2_Xpc3o01_mac_out9\/M26_g \
 N_X8\/X117\/noxref_PAD_Xpc3o01_mac_out9\/M25_s \
 N_VDDO_CORE_Xpc3o01_mac_out9\/M19_b ) phv l=0.4 w=52 ad=47.32 as=120.64 \
 pd=53.82 ps=56.64 postlayout=1 //x=1732.5 //y=1610.66
XXpc3o01_mac_out0\/R1 (  Xpc3o01_mac_out0\/U29_U69_padr \
 N_X8\/X117\/noxref_10_Xpc3o01_mac_out0\/R1_neg ) rnmpoly2t r=302.279 w=4 l=2.5 \
 //x=1834.4 //y=1627.68
XXpc3o01_mac_out0\/R2 (  N_X8\/X117\/noxref_10_Xpc3o01_mac_out0\/R2_pos \
 N_X8\/X117\/noxref_PAD_Xpc3o01_mac_out0\/R2_neg ) rnmpoly2t r=302.279 w=4 \
 l=2.5  //x=1834.39 //y=1644.5
XXpc3o01_mac_out15\/R27 (  N_VSSO_CORE_Xpc3o01_mac_out15\/R27_pos \
 N_Xpc3o01_mac_out15\/U29_U74\$9_gate_Xpc3o01_mac_out15\/R27_neg ) rnwellsti2t \
 r=4891.48 w=2.1 l=8.65  //x=1817.8 //y=1656.01
XXpc3o01_mac_out9\/R28 (  \
 N_Xpc3o01_mac_out9\/U29_U37_r2_Xpc3o01_mac_out9\/R28_pos \
 N_VDDO_CORE_Xpc3o01_mac_out9\/R28_neg ) rnwellsti2t r=4891.48 w=2.1 l=8.65  \
 //x=1817.75 //y=1664.87
mXpc3d01_b0\/M7 ( N_X8\/X133\/noxref_PAD_Xpc3d01_b0\/M8_d \
 N_Xpc3d01_b0\/U14_MN4\$11_gate_Xpc3d01_b0\/M7_g N_VSSO_CORE_Xpc3d01_b0\/M7_s \
 N_VSSO_CORE_Xpc3d01_b0\/M8_b ) nhv l=0.5 w=30 ad=100.8 as=25.8 pd=36.72 \
 ps=31.72 postlayout=1 //x=383.57 //y=1874.25
mXpc3d01_b0\/M8 ( N_X8\/X133\/noxref_PAD_Xpc3d01_b0\/M8_d \
 N_Xpc3d01_b0\/U14_MN4\$11_gate_Xpc3d01_b0\/M8_g N_VSSO_CORE_Xpc3d01_b0\/M8_s \
 N_VSSO_CORE_Xpc3d01_b0\/M8_b ) nhv l=0.5 w=30 ad=100.8 as=39.9 pd=36.72 \
 ps=62.66 postlayout=1 //x=390.79 //y=1874.25
mXpc3d01_b0\/M9 ( N_X8\/X133\/noxref_PAD_Xpc3d01_b0\/M10_d \
 N_Xpc3d01_b0\/U14_MN4\$11_gate_Xpc3d01_b0\/M9_g N_VSSO_CORE_Xpc3d01_b0\/M9_s \
 N_VSSO_CORE_Xpc3d01_b0\/M8_b ) nhv l=0.5 w=30 ad=100.8 as=25.8 pd=36.72 \
 ps=31.72 postlayout=1 //x=374.13 //y=1874.25
mXpc3d01_b0\/M10 ( N_X8\/X133\/noxref_PAD_Xpc3d01_b0\/M10_d \
 N_Xpc3d01_b0\/U14_MN4\$11_gate_Xpc3d01_b0\/M10_g N_VSSO_CORE_Xpc3d01_b0\/M7_s \
 N_VSSO_CORE_Xpc3d01_b0\/M8_b ) nhv l=0.5 w=30 ad=100.8 as=25.8 pd=36.72 \
 ps=31.72 postlayout=1 //x=381.35 //y=1874.25
mXpc3d01_b0\/M11 ( N_X8\/X133\/noxref_PAD_Xpc3d01_b0\/M12_d \
 N_Xpc3d01_b0\/U14_MN4\$11_gate_Xpc3d01_b0\/M11_g \
 N_VSSO_CORE_Xpc3d01_b0\/M11_s N_VSSO_CORE_Xpc3d01_b0\/M8_b ) nhv l=0.5 w=30 \
 ad=100.8 as=25.8 pd=36.72 ps=31.72 postlayout=1 //x=364.69 //y=1874.25
mXpc3d01_b0\/M12 ( N_X8\/X133\/noxref_PAD_Xpc3d01_b0\/M12_d \
 N_Xpc3d01_b0\/U14_MN4\$11_gate_Xpc3d01_b0\/M12_g N_VSSO_CORE_Xpc3d01_b0\/M9_s \
 N_VSSO_CORE_Xpc3d01_b0\/M8_b ) nhv l=0.5 w=30 ad=100.8 as=25.8 pd=36.72 \
 ps=31.72 postlayout=1 //x=371.91 //y=1874.25
mXpc3d01_b0\/M13 ( N_X8\/X133\/noxref_PAD_Xpc3d01_b0\/M14_d \
 N_Xpc3d01_b0\/U14_MN4\$11_gate_Xpc3d01_b0\/M13_g \
 N_VSSO_CORE_Xpc3d01_b0\/M13_s N_VSSO_CORE_Xpc3d01_b0\/M8_b ) nhv l=0.5 w=30 \
 ad=100.8 as=25.8 pd=36.72 ps=31.72 postlayout=1 //x=355.25 //y=1874.25
mXpc3d01_b0\/M14 ( N_X8\/X133\/noxref_PAD_Xpc3d01_b0\/M14_d \
 N_Xpc3d01_b0\/U14_MN4\$11_gate_Xpc3d01_b0\/M14_g \
 N_VSSO_CORE_Xpc3d01_b0\/M11_s N_VSSO_CORE_Xpc3d01_b0\/M8_b ) nhv l=0.5 w=30 \
 ad=100.8 as=25.8 pd=36.72 ps=31.72 postlayout=1 //x=362.47 //y=1874.25
mXpc3d01_b0\/M15 ( N_X8\/X133\/noxref_PAD_Xpc3d01_b0\/M16_d \
 N_Xpc3d01_b0\/U14_MN4\$11_gate_Xpc3d01_b0\/M15_g \
 N_VSSO_CORE_Xpc3d01_b0\/M15_s N_VSSO_CORE_Xpc3d01_b0\/M8_b ) nhv l=0.5 w=30 \
 ad=100.8 as=25.8 pd=36.72 ps=31.72 postlayout=1 //x=345.81 //y=1874.25
mXpc3d01_b0\/M16 ( N_X8\/X133\/noxref_PAD_Xpc3d01_b0\/M16_d \
 N_Xpc3d01_b0\/U14_MN4\$11_gate_Xpc3d01_b0\/M16_g \
 N_VSSO_CORE_Xpc3d01_b0\/M13_s N_VSSO_CORE_Xpc3d01_b0\/M8_b ) nhv l=0.5 w=30 \
 ad=100.8 as=25.8 pd=36.72 ps=31.72 postlayout=1 //x=353.03 //y=1874.25
mXpc3d01_b0\/M17 ( N_X8\/X133\/noxref_PAD_Xpc3d01_b0\/M18_d \
 N_Xpc3d01_b0\/U14_MN4\$11_gate_Xpc3d01_b0\/M17_g \
 N_VSSO_CORE_Xpc3d01_b0\/M17_s N_VSSO_CORE_Xpc3d01_b0\/M8_b ) nhv l=0.5 w=30 \
 ad=100.8 as=39.9 pd=36.72 ps=62.66 postlayout=1 //x=336.37 //y=1874.25
mXpc3d01_b0\/M18 ( N_X8\/X133\/noxref_PAD_Xpc3d01_b0\/M18_d \
 N_Xpc3d01_b0\/U14_MN4\$11_gate_Xpc3d01_b0\/M18_g \
 N_VSSO_CORE_Xpc3d01_b0\/M15_s N_VSSO_CORE_Xpc3d01_b0\/M8_b ) nhv l=0.5 w=30 \
 ad=100.8 as=25.8 pd=36.72 ps=31.72 postlayout=1 //x=343.59 //y=1874.25
mXpc3d01_enable\/M20 ( N_VDDO_CORE_Xpc3d01_enable\/M20_d \
 N_Xpc3d01_enable\/U14_pgate_tol_Xpc3d01_enable\/M20_g \
 N_X8\/X133\/noxref_PAD_Xpc3d01_enable\/M20_s \
 N_VDDO_CORE_Xpc3d01_enable\/M24_b ) phv l=0.4 w=52 ad=73.84 as=120.64 \
 pd=106.84 ps=56.64 postlayout=1 //x=389.34 //y=1766.58
mXpc3d01_enable\/M21 ( N_VDDO_CORE_Xpc3d01_enable\/M24_d \
 N_Xpc3d01_enable\/U14_pgate_tol_Xpc3d01_enable\/M21_g \
 N_X8\/X133\/noxref_PAD_Xpc3d01_enable\/M20_s \
 N_VDDO_CORE_Xpc3d01_enable\/M24_b ) phv l=0.4 w=52 ad=47.32 as=120.64 \
 pd=53.82 ps=56.64 postlayout=1 //x=389.34 //y=1761.54
mXpc3d01_enable\/M22 ( N_VDDO_CORE_Xpc3d01_enable\/M31_d \
 N_Xpc3d01_enable\/U14_pgate_tol_Xpc3d01_enable\/M22_g \
 N_X8\/X133\/noxref_PAD_Xpc3d01_enable\/M22_s \
 N_VDDO_CORE_Xpc3d01_enable\/M24_b ) phv l=0.4 w=52 ad=47.32 as=120.64 \
 pd=53.82 ps=56.64 postlayout=1 //x=389.34 //y=1730.28
mXpc3d01_enable\/M23 ( N_VDDO_CORE_Xpc3d01_enable\/M23_d \
 N_Xpc3d01_enable\/U14_pgate_tol_Xpc3d01_enable\/M23_g \
 N_X8\/X133\/noxref_PAD_Xpc3d01_enable\/M22_s \
 N_VDDO_CORE_Xpc3d01_enable\/M24_b ) phv l=0.4 w=52 ad=73.84 as=120.64 \
 pd=106.84 ps=56.64 postlayout=1 //x=389.34 //y=1725.24
mXpc3d01_enable\/M24 ( N_VDDO_CORE_Xpc3d01_enable\/M24_d \
 N_Xpc3d01_enable\/U14_pgate_tol_Xpc3d01_enable\/M24_g \
 N_X8\/X133\/noxref_PAD_Xpc3d01_enable\/M24_s \
 N_VDDO_CORE_Xpc3d01_enable\/M24_b ) phv l=0.4 w=52 ad=47.32 as=120.64 \
 pd=53.82 ps=56.64 postlayout=1 //x=389.34 //y=1758.92
mXpc3d01_enable\/M25 ( N_VDDO_CORE_Xpc3d01_enable\/M25_d \
 N_Xpc3d01_enable\/U14_pgate_tol_Xpc3d01_enable\/M25_g \
 N_X8\/X133\/noxref_PAD_Xpc3d01_enable\/M24_s \
 N_VDDO_CORE_Xpc3d01_enable\/M24_b ) phv l=0.4 w=52 ad=47.32 as=120.64 \
 pd=53.82 ps=56.64 postlayout=1 //x=389.34 //y=1754.28
mXpc3d01_enable\/M26 ( N_VDDO_CORE_Xpc3d01_enable\/M25_d \
 N_Xpc3d01_enable\/U14_pgate_tol_Xpc3d01_enable\/M26_g \
 N_X8\/X133\/noxref_PAD_Xpc3d01_enable\/M26_s \
 N_VDDO_CORE_Xpc3d01_enable\/M24_b ) phv l=0.4 w=52 ad=47.32 as=120.64 \
 pd=53.82 ps=56.64 postlayout=1 //x=389.34 //y=1751.66
mXpc3d01_enable\/M27 ( N_VDDO_CORE_Xpc3d01_enable\/M27_d \
 N_Xpc3d01_enable\/U14_pgate_tol_Xpc3d01_enable\/M27_g \
 N_X8\/X133\/noxref_PAD_Xpc3d01_enable\/M26_s \
 N_VDDO_CORE_Xpc3d01_enable\/M24_b ) phv l=0.4 w=52 ad=47.32 as=120.64 \
 pd=53.82 ps=56.64 postlayout=1 //x=389.34 //y=1747.02
mXpc3d01_enable\/M28 ( N_VDDO_CORE_Xpc3d01_enable\/M27_d \
 N_Xpc3d01_enable\/U14_pgate_tol_Xpc3d01_enable\/M28_g \
 N_X8\/X133\/noxref_PAD_Xpc3d01_enable\/M28_s \
 N_VDDO_CORE_Xpc3d01_enable\/M24_b ) phv l=0.4 w=52 ad=47.32 as=120.64 \
 pd=53.82 ps=56.64 postlayout=1 //x=389.34 //y=1744.4
mXpc3d01_enable\/M29 ( N_VDDO_CORE_Xpc3d01_enable\/M29_d \
 N_Xpc3d01_enable\/U14_pgate_tol_Xpc3d01_enable\/M29_g \
 N_X8\/X133\/noxref_PAD_Xpc3d01_enable\/M28_s \
 N_VDDO_CORE_Xpc3d01_enable\/M24_b ) phv l=0.4 w=52 ad=47.32 as=120.64 \
 pd=53.82 ps=56.64 postlayout=1 //x=389.34 //y=1739.76
mXpc3d01_enable\/M30 ( N_VDDO_CORE_Xpc3d01_enable\/M29_d \
 N_Xpc3d01_enable\/U14_pgate_tol_Xpc3d01_enable\/M30_g \
 N_X8\/X133\/noxref_PAD_Xpc3d01_enable\/M30_s \
 N_VDDO_CORE_Xpc3d01_enable\/M24_b ) phv l=0.4 w=52 ad=47.32 as=120.64 \
 pd=53.82 ps=56.64 postlayout=1 //x=389.34 //y=1737.14
mXpc3d01_enable\/M31 ( N_VDDO_CORE_Xpc3d01_enable\/M31_d \
 N_Xpc3d01_enable\/U14_pgate_tol_Xpc3d01_enable\/M31_g \
 N_X8\/X133\/noxref_PAD_Xpc3d01_enable\/M30_s \
 N_VDDO_CORE_Xpc3d01_enable\/M24_b ) phv l=0.4 w=52 ad=47.32 as=120.64 \
 pd=53.82 ps=56.64 postlayout=1 //x=389.34 //y=1732.5
XXpc3d01_a0\/R5 (  N_X8\/X133\/noxref_8_Xpc3d01_a0\/R5_pos \
 N_X8\/X133\/noxref_PAD_Xpc3d01_a0\/R5_neg ) rnmpoly2t r=302.279 w=4 l=2.5  \
 //x=370.48 //y=1833.85
XXpc3d01_a0\/R6 (  N_X8\/X133\/noxref_8_Xpc3d01_a0\/R6_pos \
 N_Xpc3d01_a0\/U14_padr_Xpc3d01_a0\/R6_neg ) rnmpoly2t r=302.279 w=4 l=2.5  \
 //x=354.76 //y=1833.85
XXpc3d01_b0\/R19 (  N_VSSO_CORE_Xpc3d01_b0\/R19_pos \
 N_Xpc3d01_b0\/U14_MN4\$11_gate_Xpc3d01_b0\/R19_neg ) rnwellsti2t r=4891.48 \
 w=2.1 l=8.65  //x=335.46 //y=1822.16
mXpc3d01_enable\/M3 ( N_Xpc3d01_enable\/U14_pgate_tol_Xpc3d01_enable\/M3_d \
 N_Xpc3d01_enable\/net_m3_VDDO_res_Xpc3d01_enable\/M3_g \
 N_Xpc3d01_enable\/U14_pgate_tol_Xpc3d01_enable\/M3_s \
 N_VSS_CORE_Xpc3o01_mac_out11\/M29_b ) nhv l=0.36 w=16.67 ad=6.8347 as=10.3354 \
 pd=17.49 ps=34.58 postlayout=1 //x=390.95 //y=1831.42
mXpc3d01_enable\/M3\@3 ( N_Xpc3d01_enable\/U14_pgate_tol_Xpc3d01_enable\/M3_s \
 N_Xpc3d01_enable\/net_m3_VDDO_res_Xpc3d01_enable\/M3\@3_g \
 N_Xpc3d01_enable\/U14_pgate_tol_Xpc3d01_enable\/M3\@3_s \
 N_VSS_CORE_Xpc3o01_mac_out11\/M29_b ) nhv l=0.36 w=16.67 ad=6.8347 as=6.8347 \
 pd=17.49 ps=17.49 postlayout=1 //x=389.77 //y=1831.42
mXpc3d01_enable\/M3\@2 ( \
 N_Xpc3d01_enable\/U14_pgate_tol_Xpc3d01_enable\/M3\@3_s \
 N_Xpc3d01_enable\/net_m3_VDDO_res_Xpc3d01_enable\/M3\@2_g \
 N_Xpc3d01_enable\/U14_pgate_tol_Xpc3d01_enable\/M3\@2_s \
 N_VSS_CORE_Xpc3o01_mac_out11\/M29_b ) nhv l=0.36 w=16.67 ad=10.5021 as=6.8347 \
 pd=34.6 ps=17.49 postlayout=1 //x=388.59 //y=1831.42
mXpc3d01_enable\/M1 ( N_VDDO_CORE_Xpc3d01_enable\/M1_d \
 N_Xpc3d01_enable\/net_m1_VDDO_res_Xpc3d01_enable\/M1_g \
 N_Xpc3d01_enable\/U14_pgate_tol_Xpc3d01_enable\/M1_s \
 N_VSS_CORE_Xpc3o01_mac_out11\/M29_b ) nhv l=0.36 w=10 ad=6.2 as=6.2 pd=21.24 \
 ps=21.24 postlayout=1 //x=386.58 //y=1825.35
mXpc3d01_a0\/M37 ( N_Xpc3d01_a0\/U14_padr_Xpc3d01_a0\/M37_d \
 N_Xpc3d01_a0\/net_m37_VSSO_res_Xpc3d01_a0\/M37_g \
 N_VSSO_CORE_Xpc3d01_a0\/M37_s N_VSS_CORE_Xpc3o01_mac_out11\/M29_b ) nhv \
 l=0.36 w=10 ad=6.2 as=4.1 pd=21.24 ps=10.82 postlayout=1 //x=381.39 //y=1825.51
mXpc3d01_a0\/M37\@2 ( N_Xpc3d01_a0\/U14_padr_Xpc3d01_a0\/M37\@2_d \
 N_Xpc3d01_a0\/net_m37_VSSO_res_Xpc3d01_a0\/M37\@2_g \
 N_VSSO_CORE_Xpc3d01_a0\/M37_s N_VSS_CORE_Xpc3o01_mac_out11\/M29_b ) nhv \
 l=0.36 w=10 ad=6.2 as=4.1 pd=21.24 ps=10.82 postlayout=1 //x=380.21 //y=1825.51
mXpc3d01_a0\/M36 ( N_Xpc3d01_a0\/U9_MPI1_drain_Xpc3d01_a0\/M36_d \
 N_Xpc3d01_a0\/U14_padr_Xpc3d01_a0\/M36_g N_VSSO_CORE_Xpc3d01_a0\/M36_s \
 N_VSS_CORE_Xpc3o01_mac_out11\/M29_b ) nhv l=0.36 w=6 ad=3.72 as=3.72 pd=13.24 \
 ps=13.24 postlayout=1 //x=378.09 //y=1822.6
mXpc3d01_a0\/M38 ( N_a_pad\[0\]_Xpc3d01_a0\/M38_d \
 N_Xpc3d01_a0\/U9_MPI1_drain_Xpc3d01_a0\/M38_g N_VSS_CORE_Xpc3d01_a0\/M38_s \
 N_VSS_CORE_Xpc3o01_mac_out11\/M29_b ) nhv l=0.36 w=6 ad=3.72 as=3.72 pd=13.24 \
 ps=13.24 postlayout=1 //x=376.06 //y=1825.53
mXpc3d01_enable\/M4 ( N_Xpc3d01_enable\/U14_pgate_tol_Xpc3d01_enable\/M4_d \
 N_Xpc3d01_enable\/net_m4_VSSO_res_Xpc3d01_enable\/M4_g \
 N_Xpc3d01_enable\/U14_pgate_tol_Xpc3d01_enable\/M4_s \
 N_VDDO_CORE_Xpc3d01_enable\/M4_b ) phv l=0.36 w=16.67 ad=6.8347 as=10.3354 \
 pd=17.49 ps=34.58 postlayout=1 //x=392.49 //y=1792.33
mXpc3d01_enable\/M4\@3 ( N_Xpc3d01_enable\/U14_pgate_tol_Xpc3d01_enable\/M4_s \
 N_Xpc3d01_enable\/net_m4_VSSO_res_Xpc3d01_enable\/M4\@3_g \
 N_Xpc3d01_enable\/U14_pgate_tol_Xpc3d01_enable\/M4\@3_s \
 N_VDDO_CORE_Xpc3d01_enable\/M4_b ) phv l=0.36 w=16.67 ad=6.8347 as=6.8347 \
 pd=17.49 ps=17.49 postlayout=1 //x=391.31 //y=1792.33
mXpc3d01_enable\/M4\@2 ( \
 N_Xpc3d01_enable\/U14_pgate_tol_Xpc3d01_enable\/M4\@3_s \
 N_Xpc3d01_enable\/net_m4_VSSO_res_Xpc3d01_enable\/M4\@2_g \
 N_Xpc3d01_enable\/U14_pgate_tol_Xpc3d01_enable\/M4\@2_s \
 N_VDDO_CORE_Xpc3d01_enable\/M4_b ) phv l=0.36 w=16.67 ad=10.5021 as=6.8347 \
 pd=34.6 ps=17.49 postlayout=1 //x=390.13 //y=1792.33
mXpc3d01_enable\/M2 ( N_Xpc3d01_enable\/U14_pgate_tol_Xpc3d01_enable\/M2_d \
 N_Xpc3d01_enable\/net_m2_VSSO_res_Xpc3d01_enable\/M2_g \
 N_VDDO_CORE_Xpc3d01_enable\/M2_s N_VDDO_CORE_Xpc3d01_enable\/M4_b ) phv \
 l=0.36 w=20 ad=12.4 as=12.4 pd=41.24 ps=41.24 postlayout=1 //x=388.03 \
 //y=1794.61
mXpc3d01_a0\/M34 ( N_Xpc3d01_a0\/U14_padr_Xpc3d01_a0\/M34_d \
 N_Xpc3d01_a0\/net_m34_VDDO_res_Xpc3d01_a0\/M34_g \
 N_VDDO_CORE_Xpc3d01_a0\/M34_s N_VDDO_CORE_Xpc3d01_enable\/M4_b ) phv l=0.36 \
 w=20 ad=12.4 as=12.4 pd=41.24 ps=41.24 postlayout=1 //x=381.3 //y=1795.75
mXpc3d01_a0\/M32 ( Xpc3d01_a0\/U9_MPI2_drain \
 N_Xpc3d01_a0\/U14_padr_Xpc3d01_a0\/M32_g N_VDDO_CORE_Xpc3d01_a0\/M32_s \
 N_VDDO_CORE_Xpc3d01_enable\/M4_b ) phv l=0.36 w=20 ad=4 as=12.4 pd=20.4 \
 ps=41.24 postlayout=1 //x=378.69 //y=1795.7
mXpc3d01_a0\/M33 ( N_Xpc3d01_a0\/U9_MPI1_drain_Xpc3d01_a0\/M33_d \
 N_Xpc3d01_a0\/U14_padr_Xpc3d01_a0\/M33_g Xpc3d01_a0\/U9_MPI2_drain \
 N_VDDO_CORE_Xpc3d01_enable\/M4_b ) phv l=0.36 w=20 ad=12.4 as=4 pd=41.24 \
 ps=20.4 postlayout=1 //x=377.93 //y=1795.7
mXpc3d01_a0\/M35 ( N_a_pad\[0\]_Xpc3d01_a0\/M35_d \
 N_Xpc3d01_a0\/U9_MPI1_drain_Xpc3d01_a0\/M35_g N_VDD_CORE_Xpc3d01_a0\/M35_s \
 N_VDD_CORE_Xpc3d01_a0\/M35_b ) phv l=0.36 w=8 ad=5.36 as=3.28 pd=17.34 \
 ps=8.82 postlayout=1 //x=345.37 //y=1786.93
mXpc3d01_a0\/M35\@4 ( N_a_pad\[0\]_Xpc3d01_a0\/M35\@4_d \
 N_Xpc3d01_a0\/U9_MPI1_drain_Xpc3d01_a0\/M35\@4_g N_VDD_CORE_Xpc3d01_a0\/M35_s \
 N_VDD_CORE_Xpc3d01_a0\/M35_b ) phv l=0.36 w=8 ad=3.28 as=3.28 pd=8.82 ps=8.82 \
 postlayout=1 //x=344.19 //y=1786.93
mXpc3d01_a0\/M35\@3 ( N_a_pad\[0\]_Xpc3d01_a0\/M35\@4_d \
 N_Xpc3d01_a0\/U9_MPI1_drain_Xpc3d01_a0\/M35\@3_g \
 N_VDD_CORE_Xpc3d01_a0\/M35\@3_s N_VDD_CORE_Xpc3d01_a0\/M35_b ) phv l=0.36 w=8 \
 ad=3.28 as=3.28 pd=8.82 ps=8.82 postlayout=1 //x=343.01 //y=1786.93
mXpc3d01_a0\/M35\@2 ( N_a_pad\[0\]_Xpc3d01_a0\/M35\@2_d \
 N_Xpc3d01_a0\/U9_MPI1_drain_Xpc3d01_a0\/M35\@2_g \
 N_VDD_CORE_Xpc3d01_a0\/M35\@3_s N_VDD_CORE_Xpc3d01_a0\/M35_b ) phv l=0.36 w=8 \
 ad=4.96 as=3.28 pd=17.24 ps=8.82 postlayout=1 //x=341.83 //y=1786.93
XXpc3d01_a0\/RM34 (  N_Xpc3d01_a0\/net_m34_VDDO_res_Xpc3d01_a0\/RM34_pos \
 N_VDDO_CORE_Xpc3d01_a0\/RM34_neg ) rpmpoly2t r=1180.05 w=2 l=6.455  \