simulator lang=spectre
include "n18.scs"
include "p18.scs"
