// Generated for: spectre
// Generated on: Jun 24 11:24:54 2026
// Design library name: basic_gates
// Design cell name: inverter_tb
// Design view name: schematic
simulator lang=spectre
global 0 vdd!
