// File: muxdelay.pex.netlist.pex
// Created: Sat May  9 11:07:31 2026
// Program "Calibre xRC"
// Version "v2022.4_37.20"
// Nominal Temperature: 25C
// Circuit Temperature: 25C
// 
simulator lang=spectre
subckt PM_muxdelay\%VSS_CORE ( 496 513 521 541 553 1677 1836 1988 2133 2292 \
 2444 2596 2634 2636 2647 2655 2668 2676 2689 3954 3974 3994 4004 4026 4046 \
 4066 4078 4082 4084 4090 4093 4094 4095 4100 4107 4119 4125 4131 4132 4148 \
 4156 4158 4164 4166 4588 4595 4915 4916 4917 4918 4919 4920 )
c496 ( 4594 0 ) capacitor c=0.00101483f
c497 ( 4588 0 ) capacitor c=0.00101483f
c498 ( 4164 0 ) capacitor c=0.0102023f
c499 ( 4156 0 ) capacitor c=0.00701383f
c500 ( 4131 0 ) capacitor c=0.00376334f
c501 ( 4119 0 ) capacitor c=1.23369e-19
c502 ( 4100 0 ) capacitor c=0.00598272f
c503 ( 4090 0 ) capacitor c=0.0131491f
c504 ( 4082 0 ) capacitor c=0.00476078f
c505 ( 4078 0 ) capacitor c=0.0131491f
c506 ( 4066 0 ) capacitor c=0.00388493f
c507 ( 4046 0 ) capacitor c=0.00388493f
c508 ( 4026 0 ) capacitor c=0.00388493f
c509 ( 4004 0 ) capacitor c=0.00388493f
c510 ( 3994 0 ) capacitor c=0.00388493f
c511 ( 3974 0 ) capacitor c=0.00388493f
c512 ( 3954 0 ) capacitor c=0.00388493f
c513 ( 2676 0 ) capacitor c=0.0153435f
c514 ( 2655 0 ) capacitor c=0.0144153f
c515 ( 2634 0 ) capacitor c=0.0153435f
c516 ( 2597 0 ) capacitor c=0.00354522f
c517 ( 2589 0 ) capacitor c=0.00388493f
c518 ( 2529 0 ) capacitor c=0.00275653f
c519 ( 2509 0 ) capacitor c=0.0013413f
c520 ( 2501 0 ) capacitor c=0.00220716f
c521 ( 2437 0 ) capacitor c=0.00388493f
c522 ( 2369 0 ) capacitor c=0.00354522f
c523 ( 2357 0 ) capacitor c=0.0013413f
c524 ( 2337 0 ) capacitor c=0.00220716f
c525 ( 2329 0 ) capacitor c=0.00275653f
c526 ( 2285 0 ) capacitor c=0.00388493f
c527 ( 2217 0 ) capacitor c=0.00354522f
c528 ( 2205 0 ) capacitor c=0.0013413f
c529 ( 2185 0 ) capacitor c=0.00220716f
c530 ( 2177 0 ) capacitor c=0.00275653f
c531 ( 2141 0 ) capacitor c=0.00354522f
c532 ( 2133 0 ) capacitor c=0.00388493f
c533 ( 2073 0 ) capacitor c=0.00275653f
c534 ( 2053 0 ) capacitor c=0.0013413f
c535 ( 2045 0 ) capacitor c=0.00220716f
c536 ( 1981 0 ) capacitor c=0.00388493f
c537 ( 1913 0 ) capacitor c=0.00354522f
c538 ( 1901 0 ) capacitor c=0.0013413f
c539 ( 1881 0 ) capacitor c=0.00220716f
c540 ( 1873 0 ) capacitor c=0.00275653f
c541 ( 1837 0 ) capacitor c=0.00354522f
c542 ( 1829 0 ) capacitor c=0.00388493f
c543 ( 1769 0 ) capacitor c=0.00275653f
c544 ( 1749 0 ) capacitor c=0.0013413f
c545 ( 1741 0 ) capacitor c=0.00220716f
c546 ( 1685 0 ) capacitor c=0.00354522f
c547 ( 1677 0 ) capacitor c=0.00388493f
c548 ( 1617 0 ) capacitor c=0.00275653f
c549 ( 1597 0 ) capacitor c=0.0013413f
c550 ( 1589 0 ) capacitor c=0.00220716f
c551 ( 1009 0 ) capacitor c=0.00354522f
c552 ( 997 0 ) capacitor c=0.0013413f
c553 ( 977 0 ) capacitor c=0.00220716f
c554 ( 969 0 ) capacitor c=0.00275653f
c555 ( 857 0 ) capacitor c=0.00354522f
c556 ( 845 0 ) capacitor c=0.0013413f
c557 ( 825 0 ) capacitor c=0.00220716f
c558 ( 817 0 ) capacitor c=0.00275653f
c559 ( 705 0 ) capacitor c=0.00354522f
c560 ( 693 0 ) capacitor c=0.0013413f
c561 ( 673 0 ) capacitor c=0.00220716f
c562 ( 665 0 ) capacitor c=0.00275653f
c563 ( 553 0 ) capacitor c=0.00285934f
c564 ( 541 0 ) capacitor c=0.0013413f
c565 ( 521 0 ) capacitor c=0.00220716f
c566 ( 513 0 ) capacitor c=0.00222706f
c567 ( 477 0 ) capacitor c=0.00354522f
c568 ( 409 0 ) capacitor c=0.00275653f
c569 ( 389 0 ) capacitor c=0.0013413f
c570 ( 381 0 ) capacitor c=0.00220716f
c571 ( 325 0 ) capacitor c=0.00354522f
c572 ( 257 0 ) capacitor c=0.00275653f
c573 ( 237 0 ) capacitor c=0.0013413f
c574 ( 229 0 ) capacitor c=0.00220716f
c575 ( 173 0 ) capacitor c=0.00354522f
c576 ( 105 0 ) capacitor c=0.00275653f
c577 ( 85 0 ) capacitor c=0.0013413f
c578 ( 77 0 ) capacitor c=0.00220716f
c579 ( 47 0 ) capacitor c=0.00101483f
c580 ( 37 0 ) capacitor c=0.00101483f
r581 (  4914 4920 ) resistor r=0.696203
r582 (  4910 4919 ) resistor r=1.63912
r583 (  4904 4918 ) resistor r=1.63912
r584 (  4901 4917 ) resistor r=0.21
r585 (  4895 4916 ) resistor r=0.5
r586 (  4594 4595 ) resistor r=0.361307
r587 (  4162 4901 ) resistor r=5
r588 (  4162 4164 ) resistor r=0.0785714
r589 (  4154 4895 ) resistor r=10
r590 (  4154 4156 ) resistor r=0.107059
r591 (  4138 4167 ) resistor r=0.0184246
r592 (  4135 4167 ) resistor r=0.0257252
r593 (  4133 4166 ) resistor r=0.0153621
r594 (  4132 4167 ) resistor r=0.0184246
r595 (  4131 4166 ) resistor r=0.0306507
r596 (  4130 4164 ) resistor r=0.0124022
r597 (  4130 4131 ) resistor r=0.16
r598 (  4126 4160 ) resistor r=0.0184246
r599 (  4125 4166 ) resistor r=0.0153621
r600 (  4122 4160 ) resistor r=0.0257252
r601 (  4120 4159 ) resistor r=0.0184246
r602 (  4119 4160 ) resistor r=0.0184246
r603 (  4116 4159 ) resistor r=0.0257252
r604 (  4106 4107 ) resistor r=5.11929
r605 (  4102 4158 ) resistor r=0.0184246
r606 (  4100 4914 ) resistor r=10
r607 (  4098 4158 ) resistor r=0.0257252
r608 (  4098 4100 ) resistor r=0.507143
r609 (  4095 4152 ) resistor r=0.0242857
r610 (  4094 4158 ) resistor r=0.0184246
r611 (  4093 4152 ) resistor r=0.0239769
r612 (  4092 4156 ) resistor r=0.0046983
r613 (  4092 4093 ) resistor r=0.330588
r614 (  4090 4910 ) resistor r=10
r615 (  4088 4149 ) resistor r=0.031483
r616 (  4088 4090 ) resistor r=0.228571
r617 (  4085 4148 ) resistor r=0.00811241
r618 (  4084 4149 ) resistor r=0.02
r619 (  4082 4915 ) resistor r=10
r620 (  4080 4148 ) resistor r=0.03528
r621 (  4080 4082 ) resistor r=0.45
r622 (  4078 4904 ) resistor r=10
r623 (  4076 4148 ) resistor r=0.03528
r624 (  4076 4078 ) resistor r=0.228571
r625 (  4066 4067 ) resistor r=7.23814
r626 (  4046 4047 ) resistor r=7.23814
r627 (  4026 4027 ) resistor r=7.23814
r628 (  4004 4148 ) resistor r=0.00811241
r629 (  3994 3995 ) resistor r=7.23814
r630 (  3974 3975 ) resistor r=7.23814
r631 (  3954 4159 ) resistor r=0.0184246
r632 (  2688 2689 ) resistor r=1.43029
r633 (  2676 4135 ) resistor r=0.217143
r634 (  2676 2688 ) resistor r=10
r635 (  2667 2668 ) resistor r=1.43029
r636 (  2655 4122 ) resistor r=0.217143
r637 (  2655 2667 ) resistor r=10
r638 (  2646 2647 ) resistor r=1.43029
r639 (  2636 4152 ) resistor r=0.0185714
r640 (  2636 4149 ) resistor r=0.065
r641 (  2636 4132 ) resistor r=0.0492857
r642 (  2636 4133 ) resistor r=0.710714
r643 (  2636 4125 ) resistor r=0.0314286
r644 (  2636 4126 ) resistor r=0.0492857
r645 (  2636 4119 ) resistor r=0.230714
r646 (  2636 4120 ) resistor r=0.0492857
r647 (  2636 4106 ) resistor r=5.11929
r648 (  2636 4102 ) resistor r=0.0392857
r649 (  2636 4094 ) resistor r=0.122143
r650 (  2636 4095 ) resistor r=0.158571
r651 (  2636 4084 ) resistor r=0.116429
r652 (  2636 4085 ) resistor r=0.0921429
r653 (  2636 4004 ) resistor r=0.0492857
r654 (  2634 4116 ) resistor r=0.217143
r655 (  2634 2646 ) resistor r=10
r656 (  2610 2616 ) resistor r=0.833333
r657 (  2609 2616 ) resistor r=0.833333
r658 (  2608 2616 ) resistor r=0.833333
r659 (  2607 2616 ) resistor r=0.833333
r660 (  2606 2616 ) resistor r=0.833333
r661 (  2605 2616 ) resistor r=2.5
r662 (  2597 2598 ) resistor r=0.148571
r663 (  2596 4067 ) resistor r=7.23814
r664 (  2596 2604 ) resistor r=2
r665 (  2595 2596 ) resistor r=0.222857
r666 (  2594 2595 ) resistor r=0.222857
r667 (  2593 2594 ) resistor r=0.222857
r668 (  2592 2593 ) resistor r=0.222714
r669 (  2591 2592 ) resistor r=0.222857
r670 (  2590 2591 ) resistor r=0.222857
r671 (  2590 2598 ) resistor r=2
r672 (  2589 2590 ) resistor r=0.148571
r673 (  2589 2597 ) resistor r=6
r674 (  2536 2604 ) resistor r=2
r675 (  2535 2536 ) resistor r=0.222857
r676 (  2531 2532 ) resistor r=0.222857
r677 (  2529 2597 ) resistor r=6
r678 (  2527 2604 ) resistor r=0.222857
r679 (  2527 2595 ) resistor r=2
r680 (  2527 2535 ) resistor r=2
r681 (  2526 2527 ) resistor r=0.222857
r682 (  2526 2594 ) resistor r=2
r683 (  2525 2526 ) resistor r=0.222857
r684 (  2525 2593 ) resistor r=2
r685 (  2524 2525 ) resistor r=0.222714
r686 (  2524 2592 ) resistor r=2
r687 (  2524 2532 ) resistor r=2
r688 (  2523 2598 ) resistor r=0.222857
r689 (  2523 2524 ) resistor r=0.222857
r690 (  2523 2591 ) resistor r=2
r691 (  2523 2531 ) resistor r=2
r692 (  2516 2610 ) resistor r=0.0464286
r693 (  2515 2609 ) resistor r=0.127857
r694 (  2515 2610 ) resistor r=0.176429
r695 (  2514 2608 ) resistor r=0.209286
r696 (  2514 2609 ) resistor r=0.095
r697 (  2513 2608 ) resistor r=0.0135714
r698 (  2512 2607 ) resistor r=0.0678571
r699 (  2512 2513 ) resistor r=0.222714
r700 (  2511 2606 ) resistor r=0.149286
r701 (  2511 2607 ) resistor r=0.155
r702 (  2510 2605 ) resistor r=0.129286
r703 (  2510 2606 ) resistor r=0.0735714
r704 (  2509 2605 ) resistor r=0.0192857
r705 (  2508 2516 ) resistor r=2
r706 (  2508 2536 ) resistor r=2
r707 (  2507 2508 ) resistor r=0.222857
r708 (  2507 2515 ) resistor r=2
r709 (  2507 2535 ) resistor r=2
r710 (  2504 2512 ) resistor r=2
r711 (  2504 2532 ) resistor r=2
r712 (  2503 2504 ) resistor r=0.222857
r713 (  2503 2511 ) resistor r=2
r714 (  2503 2531 ) resistor r=2
r715 (  2501 2509 ) resistor r=6
r716 (  2501 2529 ) resistor r=6
r717 (  2494 2507 ) resistor r=0.222857
r718 (  2494 2514 ) resistor r=2
r719 (  2493 2504 ) resistor r=0.222714
r720 (  2493 2494 ) resistor r=0.222857
r721 (  2493 2513 ) resistor r=2
r722 (  2490 2501 ) resistor r=0.148571
r723 (  2490 2503 ) resistor r=0.222857
r724 (  2490 2510 ) resistor r=2
r725 (  2486 2535 ) resistor r=0.222857
r726 (  2486 2526 ) resistor r=2
r727 (  2486 2494 ) resistor r=2
r728 (  2485 2532 ) resistor r=0.222714
r729 (  2485 2486 ) resistor r=0.222857
r730 (  2485 2525 ) resistor r=2
r731 (  2485 2493 ) resistor r=2
r732 (  2482 2529 ) resistor r=0.148571
r733 (  2482 2531 ) resistor r=0.222857
r734 (  2482 2598 ) resistor r=2
r735 (  2482 2490 ) resistor r=2
r736 (  2464 2616 ) resistor r=0.04
r737 (  2458 2464 ) resistor r=0.833333
r738 (  2457 2464 ) resistor r=0.833333
r739 (  2456 2464 ) resistor r=0.833333
r740 (  2455 2464 ) resistor r=0.833333
r741 (  2454 2464 ) resistor r=0.833333
r742 (  2453 2464 ) resistor r=2.5
r743 (  2448 2449 ) resistor r=0.222714
r744 (  2444 4047 ) resistor r=7.23814
r745 (  2443 2444 ) resistor r=0.222857
r746 (  2443 2451 ) resistor r=2
r747 (  2442 2443 ) resistor r=0.222857
r748 (  2441 2442 ) resistor r=0.222857
r749 (  2441 2449 ) resistor r=2
r750 (  2440 2441 ) resistor r=0.222714
r751 (  2440 2448 ) resistor r=2
r752 (  2439 2440 ) resistor r=0.222857
r753 (  2438 2439 ) resistor r=0.222857
r754 (  2438 2446 ) resistor r=2
r755 (  2437 2438 ) resistor r=0.148571
r756 (  2381 2449 ) resistor r=2
r757 (  2376 2451 ) resistor r=0.222857
r758 (  2376 2444 ) resistor r=2
r759 (  2374 2449 ) resistor r=0.222857
r760 (  2374 2451 ) resistor r=0.222857
r761 (  2374 2442 ) resistor r=2
r762 (  2371 2446 ) resistor r=0.222857
r763 (  2371 2448 ) resistor r=0.222857
r764 (  2371 2439 ) resistor r=2
r765 (  2371 2379 ) resistor r=2
r766 (  2369 2446 ) resistor r=0.148571
r767 (  2369 2437 ) resistor r=6
r768 (  2364 2458 ) resistor r=0.0464286
r769 (  2363 2457 ) resistor r=0.127857
r770 (  2363 2458 ) resistor r=0.176429
r771 (  2362 2456 ) resistor r=0.209286
r772 (  2362 2457 ) resistor r=0.095
r773 (  2361 2456 ) resistor r=0.0135714
r774 (  2360 2455 ) resistor r=0.0678571
r775 (  2360 2361 ) resistor r=0.222714
r776 (  2359 2454 ) resistor r=0.149286
r777 (  2359 2455 ) resistor r=0.155
r778 (  2358 2453 ) resistor r=0.129286
r779 (  2358 2454 ) resistor r=0.0735714
r780 (  2357 2453 ) resistor r=0.0192857
r781 (  2353 2361 ) resistor r=2
r782 (  2353 2381 ) resistor r=2
r783 (  2351 2359 ) resistor r=2
r784 (  2351 2379 ) resistor r=2
r785 (  2344 2364 ) resistor r=2
r786 (  2343 2344 ) resistor r=0.222857
r787 (  2343 2363 ) resistor r=2
r788 (  2342 2353 ) resistor r=0.222857
r789 (  2342 2343 ) resistor r=0.222857
r790 (  2342 2362 ) resistor r=2
r791 (  2340 2351 ) resistor r=0.222857
r792 (  2340 2353 ) resistor r=0.222714
r793 (  2340 2360 ) resistor r=2
r794 (  2338 2351 ) resistor r=0.222857
r795 (  2338 2358 ) resistor r=2
r796 (  2337 2338 ) resistor r=0.148571
r797 (  2337 2357 ) resistor r=6
r798 (  2336 2376 ) resistor r=2
r799 (  2336 2344 ) resistor r=2
r800 (  2335 2336 ) resistor r=0.222857
r801 (  2335 2451 ) resistor r=2
r802 (  2335 2343 ) resistor r=2
r803 (  2334 2381 ) resistor r=0.222857
r804 (  2334 2335 ) resistor r=0.222857
r805 (  2334 2374 ) resistor r=2
r806 (  2334 2342 ) resistor r=2
r807 (  2332 2379 ) resistor r=0.222857
r808 (  2332 2381 ) resistor r=0.222714
r809 (  2332 2448 ) resistor r=2
r810 (  2332 2340 ) resistor r=2
r811 (  2330 2379 ) resistor r=0.222857
r812 (  2330 2446 ) resistor r=2
r813 (  2330 2338 ) resistor r=2
r814 (  2329 2330 ) resistor r=0.148571
r815 (  2329 2369 ) resistor r=6
r816 (  2329 2337 ) resistor r=6
r817 (  2312 2464 ) resistor r=0.04
r818 (  2306 2312 ) resistor r=0.833333
r819 (  2305 2312 ) resistor r=0.833333
r820 (  2304 2312 ) resistor r=0.833333
r821 (  2303 2312 ) resistor r=0.833333
r822 (  2302 2312 ) resistor r=0.833333
r823 (  2301 2312 ) resistor r=2.5
r824 (  2294 2295 ) resistor r=0.222857
r825 (  2292 4027 ) resistor r=7.23814
r826 (  2291 2292 ) resistor r=0.222857
r827 (  2291 2299 ) resistor r=2
r828 (  2290 2291 ) resistor r=0.222857
r829 (  2289 2290 ) resistor r=0.222857
r830 (  2289 2297 ) resistor r=2
r831 (  2288 2289 ) resistor r=0.222714
r832 (  2287 2288 ) resistor r=0.222857
r833 (  2287 2295 ) resistor r=2
r834 (  2286 2287 ) resistor r=0.222857
r835 (  2286 2294 ) resistor r=2
r836 (  2285 2286 ) resistor r=0.148571
r837 (  2229 2297 ) resistor r=2
r838 (  2228 2229 ) resistor r=0.222714
r839 (  2224 2299 ) resistor r=0.222857
r840 (  2224 2292 ) resistor r=2
r841 (  2222 2297 ) resistor r=0.222857
r842 (  2222 2299 ) resistor r=0.222857
r843 (  2222 2290 ) resistor r=2
r844 (  2220 2295 ) resistor r=0.222857
r845 (  2220 2297 ) resistor r=0.222714
r846 (  2220 2288 ) resistor r=2
r847 (  2220 2228 ) resistor r=2
r848 (  2217 2294 ) resistor r=0.148571
r849 (  2217 2285 ) resistor r=6
r850 (  2212 2306 ) resistor r=0.0464286
r851 (  2211 2305 ) resistor r=0.127857
r852 (  2211 2306 ) resistor r=0.176429
r853 (  2210 2304 ) resistor r=0.209286
r854 (  2210 2305 ) resistor r=0.095
r855 (  2209 2304 ) resistor r=0.0135714
r856 (  2208 2303 ) resistor r=0.0678571
r857 (  2208 2209 ) resistor r=0.222714
r858 (  2207 2302 ) resistor r=0.149286
r859 (  2207 2303 ) resistor r=0.155
r860 (  2206 2301 ) resistor r=0.129286
r861 (  2206 2302 ) resistor r=0.0735714
r862 (  2205 2301 ) resistor r=0.0192857
r863 (  2201 2209 ) resistor r=2
r864 (  2201 2229 ) resistor r=2
r865 (  2200 2201 ) resistor r=0.222714
r866 (  2200 2208 ) resistor r=2
r867 (  2200 2228 ) resistor r=2
r868 (  2192 2212 ) resistor r=2
r869 (  2191 2192 ) resistor r=0.222857
r870 (  2191 2211 ) resistor r=2
r871 (  2190 2201 ) resistor r=0.222857
r872 (  2190 2191 ) resistor r=0.222857
r873 (  2190 2210 ) resistor r=2
r874 (  2187 2200 ) resistor r=0.222857
r875 (  2187 2207 ) resistor r=2
r876 (  2186 2187 ) resistor r=0.222857
r877 (  2186 2206 ) resistor r=2
r878 (  2185 2186 ) resistor r=0.148571
r879 (  2185 2205 ) resistor r=6
r880 (  2184 2224 ) resistor r=2
r881 (  2184 2192 ) resistor r=2
r882 (  2183 2184 ) resistor r=0.222857
r883 (  2183 2299 ) resistor r=2
r884 (  2183 2191 ) resistor r=2
r885 (  2182 2229 ) resistor r=0.222857
r886 (  2182 2183 ) resistor r=0.222857
r887 (  2182 2222 ) resistor r=2
r888 (  2182 2190 ) resistor r=2
r889 (  2179 2228 ) resistor r=0.222857
r890 (  2179 2295 ) resistor r=2
r891 (  2179 2187 ) resistor r=2
r892 (  2178 2179 ) resistor r=0.222857
r893 (  2178 2294 ) resistor r=2
r894 (  2178 2186 ) resistor r=2
r895 (  2177 2178 ) resistor r=0.148571
r896 (  2177 2217 ) resistor r=6
r897 (  2177 2185 ) resistor r=6
r898 (  2160 2312 ) resistor r=0.04
r899 (  2154 2160 ) resistor r=0.833333
r900 (  2153 2160 ) resistor r=0.833333
r901 (  2152 2160 ) resistor r=0.833333
r902 (  2151 2160 ) resistor r=0.833333
r903 (  2150 2160 ) resistor r=0.833333
r904 (  2149 2160 ) resistor r=2.5
r905 (  2141 2142 ) resistor r=0.148571
r906 (  2140 4107 ) resistor r=5.11943
r907 (  2139 2140 ) resistor r=0.222857
r908 (  2138 2139 ) resistor r=0.222857
r909 (  2137 2138 ) resistor r=0.222857
r910 (  2136 2137 ) resistor r=0.222714
r911 (  2135 2136 ) resistor r=0.222857
r912 (  2134 2135 ) resistor r=0.222857
r913 (  2134 2142 ) resistor r=2
r914 (  2133 2134 ) resistor r=0.148571
r915 (  2133 2141 ) resistor r=6
r916 (  2075 2076 ) resistor r=0.222857
r917 (  2073 2141 ) resistor r=6
r918 (  2072 2140 ) resistor r=2
r919 (  2071 2072 ) resistor r=0.222857
r920 (  2071 2139 ) resistor r=2
r921 (  2071 2079 ) resistor r=2
r922 (  2070 2071 ) resistor r=0.222857
r923 (  2070 2138 ) resistor r=2
r924 (  2069 2070 ) resistor r=0.222857
r925 (  2069 2137 ) resistor r=2
r926 (  2068 2069 ) resistor r=0.222714
r927 (  2068 2136 ) resistor r=2
r928 (  2068 2076 ) resistor r=2
r929 (  2067 2142 ) resistor r=0.222857
r930 (  2067 2068 ) resistor r=0.222857
r931 (  2067 2135 ) resistor r=2
r932 (  2067 2075 ) resistor r=2
r933 (  2060 2154 ) resistor r=0.0464286
r934 (  2059 2153 ) resistor r=0.127857
r935 (  2059 2154 ) resistor r=0.176429
r936 (  2058 2152 ) resistor r=0.209286
r937 (  2058 2153 ) resistor r=0.095
r938 (  2057 2152 ) resistor r=0.0135714
r939 (  2056 2151 ) resistor r=0.0678571
r940 (  2056 2057 ) resistor r=0.222714
r941 (  2055 2150 ) resistor r=0.149286
r942 (  2055 2151 ) resistor r=0.155
r943 (  2054 2149 ) resistor r=0.129286
r944 (  2054 2150 ) resistor r=0.0735714
r945 (  2053 2149 ) resistor r=0.0192857
r946 (  2051 2059 ) resistor r=2
r947 (  2051 2079 ) resistor r=2
r948 (  2048 2056 ) resistor r=2
r949 (  2048 2076 ) resistor r=2
r950 (  2047 2048 ) resistor r=0.222857
r951 (  2047 2055 ) resistor r=2
r952 (  2047 2075 ) resistor r=2
r953 (  2045 2053 ) resistor r=6
r954 (  2045 2073 ) resistor r=6
r955 (  2040 2051 ) resistor r=0.222857
r956 (  2040 2060 ) resistor r=2
r957 (  2038 2051 ) resistor r=0.222857
r958 (  2038 2058 ) resistor r=2
r959 (  2037 2048 ) resistor r=0.222714
r960 (  2037 2038 ) resistor r=0.222857
r961 (  2037 2057 ) resistor r=2
r962 (  2034 2045 ) resistor r=0.148571
r963 (  2034 2047 ) resistor r=0.222857
r964 (  2034 2054 ) resistor r=2
r965 (  2032 2079 ) resistor r=0.222857
r966 (  2032 2072 ) resistor r=2
r967 (  2032 2040 ) resistor r=2
r968 (  2030 2079 ) resistor r=0.222857
r969 (  2030 2070 ) resistor r=2
r970 (  2030 2038 ) resistor r=2
r971 (  2029 2076 ) resistor r=0.222714
r972 (  2029 2030 ) resistor r=0.222857
r973 (  2029 2069 ) resistor r=2
r974 (  2029 2037 ) resistor r=2
r975 (  2026 2073 ) resistor r=0.148571
r976 (  2026 2075 ) resistor r=0.222857
r977 (  2026 2142 ) resistor r=2
r978 (  2026 2034 ) resistor r=2
r979 (  2008 2160 ) resistor r=0.04
r980 (  2002 2008 ) resistor r=0.833333
r981 (  2001 2008 ) resistor r=0.833333
r982 (  2000 2008 ) resistor r=0.833333
r983 (  1999 2008 ) resistor r=0.833333
r984 (  1998 2008 ) resistor r=0.833333
r985 (  1997 2008 ) resistor r=2.5
r986 (  1988 3995 ) resistor r=7.23814
r987 (  1988 1996 ) resistor r=2
r988 (  1987 1988 ) resistor r=0.222857
r989 (  1986 1987 ) resistor r=0.222857
r990 (  1986 1994 ) resistor r=2
r991 (  1985 1986 ) resistor r=0.222857
r992 (  1984 1985 ) resistor r=0.222714
r993 (  1983 1984 ) resistor r=0.222857
r994 (  1982 1983 ) resistor r=0.222857
r995 (  1981 1982 ) resistor r=0.148571
r996 (  1928 1996 ) resistor r=2
r997 (  1927 1928 ) resistor r=0.222857
r998 (  1926 1927 ) resistor r=0.222857
r999 (  1926 1994 ) resistor r=2
r1000 (  1923 1924 ) resistor r=0.222857
r1001 (  1922 1923 ) resistor r=0.222857
r1002 (  1919 1994 ) resistor r=0.222857
r1003 (  1919 1996 ) resistor r=0.222857
r1004 (  1919 1987 ) resistor r=2
r1005 (  1919 1927 ) resistor r=2
r1006 (  1917 1994 ) resistor r=0.222857
r1007 (  1917 1985 ) resistor r=2
r1008 (  1916 1917 ) resistor r=0.222714
r1009 (  1916 1984 ) resistor r=2
r1010 (  1916 1924 ) resistor r=2
r1011 (  1915 1916 ) resistor r=0.222857
r1012 (  1915 1983 ) resistor r=2
r1013 (  1915 1923 ) resistor r=2
r1014 (  1914 1915 ) resistor r=0.222857
r1015 (  1914 1982 ) resistor r=2
r1016 (  1914 1922 ) resistor r=2
r1017 (  1913 1914 ) resistor r=0.148571
r1018 (  1913 1981 ) resistor r=6
r1019 (  1908 2002 ) resistor r=0.0464286
r1020 (  1907 2001 ) resistor r=0.127857
r1021 (  1907 2002 ) resistor r=0.176429
r1022 (  1906 2000 ) resistor r=0.209286
r1023 (  1906 2001 ) resistor r=0.095
r1024 (  1905 2000 ) resistor r=0.0135714
r1025 (  1904 1999 ) resistor r=0.0678571
r1026 (  1904 1905 ) resistor r=0.222714
r1027 (  1903 1998 ) resistor r=0.149286
r1028 (  1903 1999 ) resistor r=0.155
r1029 (  1902 1997 ) resistor r=0.129286
r1030 (  1902 1998 ) resistor r=0.0735714
r1031 (  1901 1997 ) resistor r=0.0192857
r1032 (  1900 1908 ) resistor r=2
r1033 (  1900 1928 ) resistor r=2
r1034 (  1899 1900 ) resistor r=0.222857
r1035 (  1899 1907 ) resistor r=2
r1036 (  1899 1927 ) resistor r=2
r1037 (  1898 1899 ) resistor r=0.222857
r1038 (  1898 1906 ) resistor r=2
r1039 (  1898 1926 ) resistor r=2
r1040 (  1896 1904 ) resistor r=2
r1041 (  1896 1924 ) resistor r=2
r1042 (  1895 1896 ) resistor r=0.222857
r1043 (  1895 1903 ) resistor r=2
r1044 (  1895 1923 ) resistor r=2
r1045 (  1894 1895 ) resistor r=0.222857
r1046 (  1894 1902 ) resistor r=2
r1047 (  1894 1922 ) resistor r=2
r1048 (  1885 1896 ) resistor r=0.222714
r1049 (  1885 1898 ) resistor r=0.222857
r1050 (  1885 1905 ) resistor r=2
r1051 (  1881 1894 ) resistor r=0.148571
r1052 (  1881 1901 ) resistor r=6
r1053 (  1877 1924 ) resistor r=0.222714
r1054 (  1877 1926 ) resistor r=0.222857
r1055 (  1877 1917 ) resistor r=2
r1056 (  1877 1885 ) resistor r=2
r1057 (  1873 1922 ) resistor r=0.148571
r1058 (  1873 1913 ) resistor r=6
r1059 (  1873 1881 ) resistor r=6
r1060 (  1856 2008 ) resistor r=0.04
r1061 (  1850 1856 ) resistor r=0.833333
r1062 (  1849 1856 ) resistor r=0.833333
r1063 (  1848 1856 ) resistor r=0.833333
r1064 (  1847 1856 ) resistor r=0.833333
r1065 (  1846 1856 ) resistor r=0.833333
r1066 (  1845 1856 ) resistor r=2.5
r1067 (  1843 1844 ) resistor r=0.222857
r1068 (  1840 1841 ) resistor r=0.222714
r1069 (  1839 1840 ) resistor r=0.222857
r1070 (  1836 3975 ) resistor r=7.23814
r1071 (  1836 1844 ) resistor r=2
r1072 (  1835 1836 ) resistor r=0.222857
r1073 (  1835 1843 ) resistor r=2
r1074 (  1834 1835 ) resistor r=0.222857
r1075 (  1833 1834 ) resistor r=0.222857
r1076 (  1833 1841 ) resistor r=2
r1077 (  1832 1833 ) resistor r=0.222714
r1078 (  1832 1840 ) resistor r=2
r1079 (  1831 1832 ) resistor r=0.222857
r1080 (  1831 1839 ) resistor r=2
r1081 (  1830 1831 ) resistor r=0.222857
r1082 (  1829 1830 ) resistor r=0.148571
r1083 (  1829 1837 ) resistor r=6
r1084 (  1776 1844 ) resistor r=2
r1085 (  1773 1841 ) resistor r=2
r1086 (  1769 1770 ) resistor r=0.148571
r1087 (  1769 1837 ) resistor r=6
r1088 (  1766 1841 ) resistor r=0.222857
r1089 (  1766 1843 ) resistor r=0.222857
r1090 (  1766 1834 ) resistor r=2
r1091 (  1762 1837 ) resistor r=0.148571
r1092 (  1762 1839 ) resistor r=0.222857
r1093 (  1762 1830 ) resistor r=2
r1094 (  1762 1770 ) resistor r=2
r1095 (  1756 1850 ) resistor r=0.0464286
r1096 (  1755 1849 ) resistor r=0.127857
r1097 (  1755 1850 ) resistor r=0.176429
r1098 (  1754 1848 ) resistor r=0.209286
r1099 (  1754 1849 ) resistor r=0.095
r1100 (  1753 1848 ) resistor r=0.0135714
r1101 (  1752 1847 ) resistor r=0.0678571
r1102 (  1752 1753 ) resistor r=0.222714
r1103 (  1751 1846 ) resistor r=0.149286
r1104 (  1751 1847 ) resistor r=0.155
r1105 (  1750 1845 ) resistor r=0.129286
r1106 (  1750 1846 ) resistor r=0.0735714
r1107 (  1749 1845 ) resistor r=0.0192857
r1108 (  1748 1756 ) resistor r=2
r1109 (  1748 1776 ) resistor r=2
r1110 (  1745 1753 ) resistor r=2
r1111 (  1745 1773 ) resistor r=2
r1112 (  1742 1750 ) resistor r=2
r1113 (  1742 1770 ) resistor r=2
r1114 (  1741 1742 ) resistor r=0.148571
r1115 (  1741 1749 ) resistor r=6
r1116 (  1741 1769 ) resistor r=6
r1117 (  1735 1748 ) resistor r=0.222857
r1118 (  1735 1755 ) resistor r=2
r1119 (  1734 1745 ) resistor r=0.222857
r1120 (  1734 1735 ) resistor r=0.222857
r1121 (  1734 1754 ) resistor r=2
r1122 (  1732 1745 ) resistor r=0.222714
r1123 (  1732 1752 ) resistor r=2
r1124 (  1731 1742 ) resistor r=0.222857
r1125 (  1731 1732 ) resistor r=0.222857
r1126 (  1731 1751 ) resistor r=2
r1127 (  1727 1776 ) resistor r=0.222857
r1128 (  1727 1843 ) resistor r=2
r1129 (  1727 1735 ) resistor r=2
r1130 (  1726 1773 ) resistor r=0.222857
r1131 (  1726 1727 ) resistor r=0.222857
r1132 (  1726 1766 ) resistor r=2
r1133 (  1726 1734 ) resistor r=2
r1134 (  1724 1773 ) resistor r=0.222714
r1135 (  1724 1840 ) resistor r=2
r1136 (  1724 1732 ) resistor r=2
r1137 (  1723 1770 ) resistor r=0.222857
r1138 (  1723 1724 ) resistor r=0.222857
r1139 (  1723 1839 ) resistor r=2
r1140 (  1723 1731 ) resistor r=2
r1141 (  1704 1856 ) resistor r=0.04
r1142 (  1698 1704 ) resistor r=0.833333
r1143 (  1697 1704 ) resistor r=0.833333
r1144 (  1696 1704 ) resistor r=0.833333
r1145 (  1695 1704 ) resistor r=0.833333
r1146 (  1694 1704 ) resistor r=0.833333
r1147 (  1693 1704 ) resistor r=2.5
r1148 (  1690 1691 ) resistor r=0.222857
r1149 (  1689 1690 ) resistor r=0.222857
r1150 (  1684 4138 ) resistor r=10.0387
r1151 (  1683 1684 ) resistor r=0.222857
r1152 (  1683 1691 ) resistor r=2
r1153 (  1682 1683 ) resistor r=0.222857
r1154 (  1682 1690 ) resistor r=2
r1155 (  1681 1682 ) resistor r=0.222857
r1156 (  1681 1689 ) resistor r=2
r1157 (  1680 1681 ) resistor r=0.222714
r1158 (  1679 1680 ) resistor r=0.222857
r1159 (  1678 1679 ) resistor r=0.222857
r1160 (  1677 1678 ) resistor r=0.148571
r1161 (  1677 1685 ) resistor r=6
r1162 (  1622 1690 ) resistor r=2
r1163 (  1621 1622 ) resistor r=0.222857
r1164 (  1621 1689 ) resistor r=2
r1165 (  1620 1621 ) resistor r=0.222714
r1166 (  1619 1620 ) resistor r=0.222857
r1167 (  1618 1619 ) resistor r=0.222857
r1168 (  1617 1618 ) resistor r=0.148571
r1169 (  1617 1685 ) resistor r=6
r1170 (  1616 1691 ) resistor r=0.222857
r1171 (  1616 1684 ) resistor r=2
r1172 (  1612 1689 ) resistor r=0.222714
r1173 (  1612 1680 ) resistor r=2
r1174 (  1612 1620 ) resistor r=2
r1175 (  1611 1612 ) resistor r=0.222857
r1176 (  1611 1679 ) resistor r=2
r1177 (  1611 1619 ) resistor r=2
r1178 (  1610 1685 ) resistor r=0.148571
r1179 (  1610 1611 ) resistor r=0.222857
r1180 (  1610 1678 ) resistor r=2
r1181 (  1610 1618 ) resistor r=2
r1182 (  1604 1698 ) resistor r=0.0464286
r1183 (  1603 1697 ) resistor r=0.127857
r1184 (  1603 1698 ) resistor r=0.176429
r1185 (  1602 1696 ) resistor r=0.209286
r1186 (  1602 1697 ) resistor r=0.095
r1187 (  1601 1696 ) resistor r=0.0135714
r1188 (  1600 1695 ) resistor r=0.0678571
r1189 (  1600 1601 ) resistor r=0.222714
r1190 (  1599 1694 ) resistor r=0.149286
r1191 (  1599 1695 ) resistor r=0.155
r1192 (  1598 1693 ) resistor r=0.129286
r1193 (  1598 1694 ) resistor r=0.0735714
r1194 (  1597 1693 ) resistor r=0.0192857
r1195 (  1594 1602 ) resistor r=2
r1196 (  1594 1622 ) resistor r=2
r1197 (  1593 1594 ) resistor r=0.222857
r1198 (  1593 1601 ) resistor r=2
r1199 (  1593 1621 ) resistor r=2
r1200 (  1592 1593 ) resistor r=0.222714
r1201 (  1592 1600 ) resistor r=2
r1202 (  1592 1620 ) resistor r=2
r1203 (  1591 1592 ) resistor r=0.222857
r1204 (  1591 1599 ) resistor r=2
r1205 (  1591 1619 ) resistor r=2
r1206 (  1590 1591 ) resistor r=0.222857
r1207 (  1590 1598 ) resistor r=2
r1208 (  1590 1618 ) resistor r=2
r1209 (  1589 1590 ) resistor r=0.148571
r1210 (  1589 1597 ) resistor r=6
r1211 (  1589 1617 ) resistor r=6
r1212 (  1584 1604 ) resistor r=2
r1213 (  1583 1594 ) resistor r=0.222857
r1214 (  1583 1584 ) resistor r=0.222857
r1215 (  1583 1603 ) resistor r=2
r1216 (  1576 1616 ) resistor r=2
r1217 (  1576 1584 ) resistor r=2
r1218 (  1575 1622 ) resistor r=0.222857
r1219 (  1575 1576 ) resistor r=0.222857
r1220 (  1575 1691 ) resistor r=2
r1221 (  1575 1583 ) resistor r=2
r1222 (  1098 1104 ) resistor r=0.833333
r1223 (  1097 1104 ) resistor r=0.833333
r1224 (  1096 1104 ) resistor r=0.833333
r1225 (  1095 1104 ) resistor r=0.833333
r1226 (  1094 1104 ) resistor r=0.833333
r1227 (  1093 1104 ) resistor r=2.5
r1228 (  1091 1092 ) resistor r=0.222857
r1229 (  1090 1091 ) resistor r=0.222857
r1230 (  1087 1088 ) resistor r=0.222857
r1231 (  1084 1092 ) resistor r=2
r1232 (  1083 1084 ) resistor r=0.222857
r1233 (  1083 1091 ) resistor r=2
r1234 (  1082 1083 ) resistor r=0.222857
r1235 (  1082 1090 ) resistor r=2
r1236 (  1081 1082 ) resistor r=0.222857
r1237 (  1080 1081 ) resistor r=0.222714
r1238 (  1080 1088 ) resistor r=2
r1239 (  1079 1080 ) resistor r=0.222857
r1240 (  1079 1087 ) resistor r=2
r1241 (  1078 1079 ) resistor r=0.222857
r1242 (  1077 4066 ) resistor r=7.23814
r1243 (  1077 1078 ) resistor r=0.148571
r1244 (  1024 1092 ) resistor r=2
r1245 (  1022 1090 ) resistor r=2
r1246 (  1013 1088 ) resistor r=0.222714
r1247 (  1013 1090 ) resistor r=0.222857
r1248 (  1013 1081 ) resistor r=2
r1249 (  1010 1087 ) resistor r=0.222857
r1250 (  1010 1078 ) resistor r=2
r1251 (  1010 1018 ) resistor r=2
r1252 (  1009 1010 ) resistor r=0.148571
r1253 (  1009 1077 ) resistor r=6
r1254 (  1004 1098 ) resistor r=0.0464286
r1255 (  1003 1097 ) resistor r=0.127857
r1256 (  1003 1098 ) resistor r=0.176429
r1257 (  1002 1096 ) resistor r=0.209286
r1258 (  1002 1097 ) resistor r=0.095
r1259 (  1001 1096 ) resistor r=0.0135714
r1260 (  1000 1095 ) resistor r=0.0678571
r1261 (  1000 1001 ) resistor r=0.222714
r1262 (  999 1094 ) resistor r=0.149286
r1263 (  999 1095 ) resistor r=0.155
r1264 (  998 1093 ) resistor r=0.129286
r1265 (  998 1094 ) resistor r=0.0735714
r1266 (  997 1093 ) resistor r=0.0192857
r1267 (  996 1004 ) resistor r=2
r1268 (  996 1024 ) resistor r=2
r1269 (  994 1002 ) resistor r=2
r1270 (  994 1022 ) resistor r=2
r1271 (  990 998 ) resistor r=2
r1272 (  990 1018 ) resistor r=2