// File: muxdelay.pex.netlist.muxdelay.pxi
// Created: Sat May  9 11:07:31 2026
// 
simulator lang=spectre
x_PM_muxdelay\%VSS_CORE ( N_VSS_CORE_c_134_p N_VSS_CORE_c_135_p \
 N_VSS_CORE_c_136_p N_VSS_CORE_c_269_p N_VSS_CORE_c_137_p N_VSS_CORE_c_16_p \
 N_VSS_CORE_c_17_p N_VSS_CORE_c_84_p N_VSS_CORE_c_85_p N_VSS_CORE_c_86_p \
 N_VSS_CORE_c_87_p N_VSS_CORE_c_109_p N_VSS_CORE_c_122_p \
 N_VSS_CORE_Xg47__4319\/MM0_b N_VSS_CORE_Xg47__4319\/MM1_s N_VSS_CORE_c_153_p \
 N_VSS_CORE_Xg45__5107\/MM1_s N_VSS_CORE_c_125_p N_VSS_CORE_Xg46__6260\/MM1_s \
 N_VSS_CORE_c_12_p N_VSS_CORE_c_13_p N_VSS_CORE_c_39_p N_VSS_CORE_c_40_p \
 N_VSS_CORE_c_41_p N_VSS_CORE_c_42_p N_VSS_CORE_c_63_p N_VSS_CORE_c_141_p \
 N_VSS_CORE_c_115_p N_VSS_CORE_c_120_p N_VSS_CORE_c_259_p N_VSS_CORE_c_216_p \
 N_VSS_CORE_c_191_p N_VSS_CORE_c_240_p N_VSS_CORE_c_276_p N_VSS_CORE_c_284_p \
 N_VSS_CORE_c_342_p N_VSS_CORE_c_154_p N_VSS_CORE_c_382_p N_VSS_CORE_c_358_p \
 N_VSS_CORE_c_207_p N_VSS_CORE_c_121_p N_VSS_CORE_c_287_p N_VSS_CORE_c_362_p \
 N_VSS_CORE_c_375_p VSS_CORE N_VSS_CORE_c_351_p N_VSS_CORE_Xtemp_reg\/MM4_s \
 N_VSS_CORE_Xtemp_reg\/MM25_s N_VSS_CORE_Xg48\/MM1_s \
 N_VSS_CORE_Xg43__2398\/MM0_s N_VSS_CORE_Xg43__2398\/MM1_s \
 N_VSS_CORE_Xtemp_reg\/MM8_s )  PM_muxdelay\%VSS_CORE
x_PM_muxdelay\%VDD_CORE ( N_VDD_CORE_c_506_n N_VDD_CORE_c_507_n \
 N_VDD_CORE_c_510_n N_VDD_CORE_c_511_n N_VDD_CORE_c_512_n N_VDD_CORE_c_515_n \
 N_VDD_CORE_c_516_n N_VDD_CORE_c_517_n N_VDD_CORE_c_518_n N_VDD_CORE_c_519_n \
 N_VDD_CORE_c_520_n N_VDD_CORE_c_521_n N_VDD_CORE_c_522_n N_VDD_CORE_c_523_n \
 N_VDD_CORE_c_524_n N_VDD_CORE_c_525_n N_VDD_CORE_c_526_n N_VDD_CORE_c_527_n \
 N_VDD_CORE_c_528_n N_VDD_CORE_c_529_n N_VDD_CORE_c_530_n N_VDD_CORE_c_531_n \
 N_VDD_CORE_c_532_n N_VDD_CORE_c_533_n N_VDD_CORE_c_534_n N_VDD_CORE_c_539_n \
 N_VDD_CORE_c_540_n N_VDD_CORE_c_541_n N_VDD_CORE_c_542_n N_VDD_CORE_c_543_n \
 N_VDD_CORE_c_544_n N_VDD_CORE_c_545_n N_VDD_CORE_c_546_n N_VDD_CORE_c_547_n \
 N_VDD_CORE_c_548_n N_VDD_CORE_c_549_n N_VDD_CORE_c_550_n N_VDD_CORE_c_551_n \
 N_VDD_CORE_c_552_n N_VDD_CORE_c_553_n N_VDD_CORE_c_554_n N_VDD_CORE_c_555_n \
 N_VDD_CORE_c_556_n N_VDD_CORE_c_557_n N_VDD_CORE_c_558_n N_VDD_CORE_c_560_n \
 N_VDD_CORE_c_561_n N_VDD_CORE_c_562_n N_VDD_CORE_c_563_n N_VDD_CORE_c_564_n \
 N_VDD_CORE_c_565_n N_VDD_CORE_c_566_n N_VDD_CORE_c_567_n N_VDD_CORE_c_568_n \
 N_VDD_CORE_c_569_n N_VDD_CORE_c_570_n N_VDD_CORE_c_571_n N_VDD_CORE_c_572_n \
 N_VDD_CORE_c_573_n N_VDD_CORE_c_574_n N_VDD_CORE_c_575_n N_VDD_CORE_c_576_n \
 N_VDD_CORE_c_577_n N_VDD_CORE_c_578_n N_VDD_CORE_c_579_n N_VDD_CORE_c_580_n \
 N_VDD_CORE_c_585_n N_VDD_CORE_c_586_n N_VDD_CORE_c_587_n N_VDD_CORE_c_588_n \
 N_VDD_CORE_c_589_n N_VDD_CORE_c_590_n N_VDD_CORE_c_591_n N_VDD_CORE_c_592_n \
 N_VDD_CORE_c_593_n N_VDD_CORE_c_594_n N_VDD_CORE_c_595_n N_VDD_CORE_c_596_n \
 N_VDD_CORE_c_597_n N_VDD_CORE_c_598_n N_VDD_CORE_c_599_n N_VDD_CORE_c_600_n \
 N_VDD_CORE_c_601_n N_VDD_CORE_c_602_n N_VDD_CORE_c_603_n N_VDD_CORE_c_604_n \
 N_VDD_CORE_c_605_n N_VDD_CORE_c_774_p N_VDD_CORE_c_815_p \
 N_VDD_CORE_Xg47__4319\/MM2_b N_VDD_CORE_c_784_p N_VDD_CORE_Xg47__4319\/MM2_s \
 N_VDD_CORE_Xg47__4319\/MM3_s N_VDD_CORE_c_641_p N_VDD_CORE_c_637_p \
 N_VDD_CORE_Xg45__5107\/MM2_b N_VDD_CORE_c_809_p N_VDD_CORE_Xg45__5107\/MM2_s \
 N_VDD_CORE_Xg45__5107\/MM3_s N_VDD_CORE_c_801_p N_VDD_CORE_c_802_p \
 N_VDD_CORE_Xg46__6260\/MM2_b N_VDD_CORE_c_855_p N_VDD_CORE_Xg46__6260\/MM2_s \
 N_VDD_CORE_Xg46__6260\/MM3_s N_VDD_CORE_c_607_n N_VDD_CORE_c_608_n \
 N_VDD_CORE_c_609_n N_VDD_CORE_c_610_n N_VDD_CORE_c_612_n N_VDD_CORE_c_613_n \
 N_VDD_CORE_c_614_n N_VDD_CORE_c_615_n N_VDD_CORE_c_632_p N_VDD_CORE_c_616_n \
 N_VDD_CORE_c_617_n N_VDD_CORE_c_713_p N_VDD_CORE_c_724_p N_VDD_CORE_c_618_n \
 N_VDD_CORE_c_619_n N_VDD_CORE_c_639_p N_VDD_CORE_c_789_p N_VDD_CORE_c_790_p \
 N_VDD_CORE_c_620_n N_VDD_CORE_c_868_p N_VDD_CORE_c_621_n N_VDD_CORE_c_707_p \
 N_VDD_CORE_c_837_p VDD_CORE N_VDD_CORE_c_623_n N_VDD_CORE_Xg43__2398\/MM3_b \
 N_VDD_CORE_Xtemp_reg\/MM1_b N_VDD_CORE_Xg48\/MM0_b N_VDD_CORE_c_840_p \
 N_VDD_CORE_Xg43__2398\/MM2_s N_VDD_CORE_Xtemp_reg\/MM0_s \
 N_VDD_CORE_Xg48\/MM0_s N_VDD_CORE_Xtemp_reg\/MM3_s )  PM_muxdelay\%VDD_CORE
x_PM_muxdelay\%C ( N_C_c_925_n N_C_c_927_n N_C_c_929_n C N_C_c_931_n \
 N_C_Xg43__2398\/MM0_g N_C_Xg43__2398\/MM2_g N_C_c_940_n N_C_c_941_n \
 N_C_c_942_n N_C_c_960_n N_C_c_944_n N_C_c_947_n )  PM_muxdelay\%C
x_PM_muxdelay\%n_3 ( N_n_3_c_1000_n N_n_3_c_1003_n N_n_3_c_1004_n \
 N_n_3_Xg45__5107\/MM0_d N_n_3_Xg45__5107\/MM2_d N_n_3_c_1005_n N_n_3_c_1006_n \
 N_n_3_c_1008_n N_n_3_c_1010_n N_n_3_c_1015_n N_n_3_c_1017_n N_n_3_c_1019_n \
 N_n_3_Xtemp_reg\/MM4_g N_n_3_Xtemp_reg\/MM0_g N_n_3_c_1050_n N_n_3_c_1026_n \
 N_n_3_c_1027_n N_n_3_c_1053_n )  PM_muxdelay\%n_3
x_PM_muxdelay\%clk ( N_clk_c_1148_n N_clk_c_1151_n clk N_clk_c_1134_n \
 N_clk_Xtemp_reg\/MM6_g N_clk_Xtemp_reg\/MM7_g N_clk_Xtemp_reg\/MM1_g \
 N_clk_Xtemp_reg\/MM2_g N_clk_c_1165_n N_clk_c_1167_n N_clk_c_1170_n \
 N_clk_c_1140_n N_clk_c_1142_n N_clk_c_1143_n N_clk_c_1174_n N_clk_c_1147_n )  \
 PM_muxdelay\%clk
x_PM_muxdelay\%Xtemp_reg\/net2 ( N_Xtemp_reg\/net2_c_1242_n \
 N_Xtemp_reg\/net2_c_1243_n N_Xtemp_reg\/net2_c_1263_n \
 N_Xtemp_reg\/net2_c_1245_n N_Xtemp_reg\/net2_c_1246_n \
 N_Xtemp_reg\/net2_Xtemp_reg\/MM5_g N_Xtemp_reg\/net2_c_1250_n \
 N_Xtemp_reg\/net2_c_1252_n N_Xtemp_reg\/net2_c_1256_n \
 N_Xtemp_reg\/net2_c_1258_n N_Xtemp_reg\/net2_Xtemp_reg\/MM4_d \
 N_Xtemp_reg\/net2_Xtemp_reg\/MM1_d )  PM_muxdelay\%Xtemp_reg\/net2
x_PM_muxdelay\%rst ( N_rst_c_1313_n N_rst_c_1317_n N_rst_c_1320_n rst \
 N_rst_c_1324_n N_rst_Xtemp_reg\/MM25_g N_rst_c_1336_n )  PM_muxdelay\%rst
x_PM_muxdelay\%Y ( N_Y_c_1395_n N_Y_c_1397_n N_Y_c_1399_n N_Y_c_1400_n \
 N_Y_c_1402_n N_Y_c_1403_n N_Y_c_1404_n N_Y_c_1405_n N_Y_c_1407_n N_Y_c_1410_n \
 N_Y_c_1414_n N_Y_c_1436_n N_Y_c_1438_n N_Y_c_1417_n N_Y_c_1419_n N_Y_c_1420_n \
 Y N_Y_c_1421_n N_Y_Xg43__2398\/MM0_d N_Y_Xg43__2398\/MM3_d )  PM_muxdelay\%Y
x_PM_muxdelay\%temp ( N_temp_c_1487_n N_temp_c_1489_n N_temp_c_1492_n \
 N_temp_c_1533_n N_temp_c_1496_n N_temp_c_1499_n N_temp_c_1538_n \
 N_temp_c_1502_n N_temp_c_1504_n N_temp_Xg43__2398\/MM1_g \
 N_temp_Xg43__2398\/MM3_g N_temp_c_1543_n N_temp_c_1514_n N_temp_c_1517_n \
 N_temp_c_1518_n N_temp_c_1520_n N_temp_c_1523_n N_temp_Xtemp_reg\/MM10_d \
 N_temp_Xtemp_reg\/MM9_d )  PM_muxdelay\%temp
x_PM_muxdelay\%Xtemp_reg\/net1 ( N_Xtemp_reg\/net1_c_1593_n \
 N_Xtemp_reg\/net1_c_1604_n N_Xtemp_reg\/net1_c_1606_n \
 N_Xtemp_reg\/net1_c_1596_n N_Xtemp_reg\/net1_c_1598_n \
 N_Xtemp_reg\/net1_c_1612_n N_Xtemp_reg\/net1_Xtemp_reg\/MM8_g \
 N_Xtemp_reg\/net1_Xtemp_reg\/MM3_g N_Xtemp_reg\/net1_c_1618_n \
 N_Xtemp_reg\/net1_c_1621_n N_Xtemp_reg\/net1_Xtemp_reg\/MM5_d \
 N_Xtemp_reg\/net1_Xtemp_reg\/MM2_d )  PM_muxdelay\%Xtemp_reg\/net1
x_PM_muxdelay\%Xtemp_reg\/net5 ( N_Xtemp_reg\/net5_c_1676_n \
 N_Xtemp_reg\/net5_c_1680_n N_Xtemp_reg\/net5_c_1684_n \
 N_Xtemp_reg\/net5_Xtemp_reg\/MM10_g N_Xtemp_reg\/net5_Xtemp_reg\/MM9_g \
 N_Xtemp_reg\/net5_c_1688_n N_Xtemp_reg\/net5_c_1691_n \
 N_Xtemp_reg\/net5_Xtemp_reg\/MM7_d N_Xtemp_reg\/net5_Xtemp_reg\/MM3_d )  \
 PM_muxdelay\%Xtemp_reg\/net5
x_PM_muxdelay\%B ( N_B_Xg47__4319\/MM0_g N_B_Xg47__4319\/MM2_g N_B_c_1747_n \
 N_B_c_1748_n N_B_c_1749_n N_B_c_1750_n N_B_c_1752_n B )  PM_muxdelay\%B
x_PM_muxdelay\%n_2 ( N_n_2_Xg45__5107\/MM0_g N_n_2_Xg45__5107\/MM2_g \
 N_n_2_c_1821_n N_n_2_c_1822_n N_n_2_c_1823_n N_n_2_c_1824_n N_n_2_c_1825_n \
 N_n_2_Xg46__6260\/MM0_d N_n_2_Xg46__6260\/MM2_d N_n_2_c_1826_n N_n_2_c_1830_n \
 N_n_2_c_1832_n N_n_2_c_1834_n N_n_2_c_1836_n N_n_2_c_1838_n N_n_2_c_1840_n \
 N_n_2_c_1841_n N_n_2_c_1843_n N_n_2_c_1846_n )  PM_muxdelay\%n_2
x_PM_muxdelay\%S ( N_S_Xg47__4319\/MM1_g N_S_Xg47__4319\/MM3_g N_S_c_1931_n \
 N_S_c_1934_n N_S_c_1935_n N_S_c_1936_n N_S_c_1937_n N_S_c_1938_n N_S_c_1939_n \
 N_S_c_1941_n N_S_c_1943_n N_S_c_1944_n N_S_c_1945_n N_S_c_1947_n N_S_c_1950_n \
 N_S_c_1951_n N_S_c_1953_n S N_S_c_1957_n N_S_c_1961_n N_S_c_1963_n \
 N_S_c_1964_n N_S_Xg48\/MM1_g N_S_Xg48\/MM0_g N_S_c_1970_n N_S_c_2011_n \
 N_S_c_1971_n N_S_c_1973_n N_S_c_1975_n )  PM_muxdelay\%S
x_PM_muxdelay\%n_0 ( N_n_0_c_2101_n N_n_0_Xg46__6260\/MM0_g \
 N_n_0_Xg46__6260\/MM2_g N_n_0_c_2105_n N_n_0_c_2106_n N_n_0_c_2107_n \
 N_n_0_c_2108_n N_n_0_c_2109_n N_n_0_c_2110_n N_n_0_c_2111_n N_n_0_c_2113_n \
 N_n_0_c_2136_n N_n_0_c_2114_n N_n_0_c_2115_n N_n_0_c_2116_n N_n_0_c_2167_n \
 N_n_0_c_2199_n N_n_0_Xg48\/MM1_d N_n_0_Xg48\/MM0_d )  PM_muxdelay\%n_0
x_PM_muxdelay\%n_1 ( N_n_1_c_2225_n N_n_1_c_2227_n N_n_1_Xg47__4319\/MM0_d \
 N_n_1_Xg47__4319\/MM2_d N_n_1_c_2228_n N_n_1_Xg45__5107\/MM1_g \
 N_n_1_Xg45__5107\/MM3_g N_n_1_c_2233_n N_n_1_c_2236_n N_n_1_c_2237_n \
 N_n_1_c_2238_n N_n_1_c_2239_n N_n_1_c_2240_n N_n_1_c_2241_n N_n_1_c_2245_n \
 N_n_1_c_2247_n )  PM_muxdelay\%n_1
x_PM_muxdelay\%A ( N_A_c_2332_n N_A_Xg46__6260\/MM1_g N_A_Xg46__6260\/MM3_g \
 N_A_c_2337_n N_A_c_2340_n N_A_c_2341_n N_A_c_2342_n N_A_c_2343_n N_A_c_2344_n \
 N_A_c_2345_n A N_A_c_2350_n N_A_c_2352_n N_A_c_2353_n )  PM_muxdelay\%A
cc_1 ( N_VSS_CORE_Xg47__4319\/MM0_b N_VDD_CORE_c_506_n ) capacitor c=1.1764f
cc_2 ( N_VSS_CORE_Xg47__4319\/MM0_b N_VDD_CORE_c_507_n ) capacitor c=3.59626f
cc_3 ( N_VSS_CORE_c_12_p N_VDD_CORE_c_507_n ) capacitor c=0.245542f
cc_4 ( N_VSS_CORE_c_13_p N_VDD_CORE_c_507_n ) capacitor c=0.245542f
cc_5 ( N_VSS_CORE_Xg47__4319\/MM0_b N_VDD_CORE_c_510_n ) capacitor c=1.1764f
cc_6 ( N_VSS_CORE_Xg47__4319\/MM0_b N_VDD_CORE_c_511_n ) capacitor c=5.635f
cc_7 ( N_VSS_CORE_c_16_p N_VDD_CORE_c_512_n ) capacitor c=0.245542f
cc_8 ( N_VSS_CORE_c_17_p N_VDD_CORE_c_512_n ) capacitor c=0.245542f
cc_9 ( N_VSS_CORE_Xg47__4319\/MM0_b N_VDD_CORE_c_512_n ) capacitor c=3.59627f
cc_10 ( N_VSS_CORE_Xg47__4319\/MM0_b N_VDD_CORE_c_515_n ) capacitor c=1.1764f
cc_11 ( N_VSS_CORE_Xg47__4319\/MM0_b N_VDD_CORE_c_516_n ) capacitor c=7.055f
cc_12 ( N_VSS_CORE_Xg47__4319\/MM0_b N_VDD_CORE_c_517_n ) capacitor c=0.276479f
cc_13 ( N_VSS_CORE_Xg47__4319\/MM0_b N_VDD_CORE_c_518_n ) capacitor c=0.240909f
cc_14 ( N_VSS_CORE_Xg47__4319\/MM0_b N_VDD_CORE_c_519_n ) capacitor c=0.067142f
cc_15 ( N_VSS_CORE_Xg47__4319\/MM0_b N_VDD_CORE_c_520_n ) capacitor c=0.352468f
cc_16 ( N_VSS_CORE_Xg47__4319\/MM0_b N_VDD_CORE_c_521_n ) capacitor c=0.240909f
cc_17 ( N_VSS_CORE_Xg47__4319\/MM0_b N_VDD_CORE_c_522_n ) capacitor c=0.067142f
cc_18 ( N_VSS_CORE_Xg47__4319\/MM0_b N_VDD_CORE_c_523_n ) capacitor c=0.276479f
cc_19 ( N_VSS_CORE_Xg47__4319\/MM0_b N_VDD_CORE_c_524_n ) capacitor c=0.352468f
cc_20 ( N_VSS_CORE_Xg47__4319\/MM0_b N_VDD_CORE_c_525_n ) capacitor c=0.276479f
cc_21 ( N_VSS_CORE_Xg47__4319\/MM0_b N_VDD_CORE_c_526_n ) capacitor c=0.240909f
cc_22 ( N_VSS_CORE_Xg47__4319\/MM0_b N_VDD_CORE_c_527_n ) capacitor c=0.0671336f
cc_23 ( N_VSS_CORE_Xg47__4319\/MM0_b N_VDD_CORE_c_528_n ) capacitor c=0.352437f
cc_24 ( N_VSS_CORE_Xg47__4319\/MM0_b N_VDD_CORE_c_529_n ) capacitor c=0.967005f
cc_25 ( N_VSS_CORE_Xg47__4319\/MM0_b N_VDD_CORE_c_530_n ) capacitor c=0.14146f
cc_26 ( N_VSS_CORE_Xg47__4319\/MM0_b N_VDD_CORE_c_531_n ) capacitor c=0.125902f
cc_27 ( N_VSS_CORE_Xg47__4319\/MM0_b N_VDD_CORE_c_532_n ) capacitor c=0.035943f
cc_28 ( N_VSS_CORE_Xg47__4319\/MM0_b N_VDD_CORE_c_533_n ) capacitor c=0.352468f
cc_29 ( N_VSS_CORE_Xg47__4319\/MM0_b N_VDD_CORE_c_534_n ) capacitor c=3.68f
cc_30 ( N_VSS_CORE_c_39_p N_VDD_CORE_c_534_n ) capacitor c=0.245542f
cc_31 ( N_VSS_CORE_c_40_p N_VDD_CORE_c_534_n ) capacitor c=0.237532f
cc_32 ( N_VSS_CORE_c_41_p N_VDD_CORE_c_534_n ) capacitor c=0.245542f
cc_33 ( N_VSS_CORE_c_42_p N_VDD_CORE_c_534_n ) capacitor c=0.245542f
cc_34 ( N_VSS_CORE_Xg47__4319\/MM0_b N_VDD_CORE_c_539_n ) capacitor c=0.14146f
cc_35 ( N_VSS_CORE_Xg47__4319\/MM0_b N_VDD_CORE_c_540_n ) capacitor c=0.240909f
cc_36 ( N_VSS_CORE_Xg47__4319\/MM0_b N_VDD_CORE_c_541_n ) capacitor c=0.035943f
cc_37 ( N_VSS_CORE_Xg47__4319\/MM0_b N_VDD_CORE_c_542_n ) capacitor c=0.352468f
cc_38 ( N_VSS_CORE_Xg47__4319\/MM0_b N_VDD_CORE_c_543_n ) capacitor c=0.276479f
cc_39 ( N_VSS_CORE_Xg47__4319\/MM0_b N_VDD_CORE_c_544_n ) capacitor c=0.240909f
cc_40 ( N_VSS_CORE_Xg47__4319\/MM0_b N_VDD_CORE_c_545_n ) capacitor c=0.067142f
cc_41 ( N_VSS_CORE_Xg47__4319\/MM0_b N_VDD_CORE_c_546_n ) capacitor c=0.352437f
cc_42 ( N_VSS_CORE_Xg47__4319\/MM0_b N_VDD_CORE_c_547_n ) capacitor c=0.967005f
cc_43 ( N_VSS_CORE_Xg47__4319\/MM0_b N_VDD_CORE_c_548_n ) capacitor c=0.276479f
cc_44 ( N_VSS_CORE_Xg47__4319\/MM0_b N_VDD_CORE_c_549_n ) capacitor c=0.240909f
cc_45 ( N_VSS_CORE_Xg47__4319\/MM0_b N_VDD_CORE_c_550_n ) capacitor c=0.0671336f
cc_46 ( N_VSS_CORE_Xg47__4319\/MM0_b N_VDD_CORE_c_551_n ) capacitor c=0.352437f
cc_47 ( N_VSS_CORE_Xg47__4319\/MM0_b N_VDD_CORE_c_552_n ) capacitor c=0.967005f
cc_48 ( N_VSS_CORE_Xg47__4319\/MM0_b N_VDD_CORE_c_553_n ) capacitor c=0.240909f
cc_49 ( N_VSS_CORE_Xg47__4319\/MM0_b N_VDD_CORE_c_554_n ) capacitor c=0.067142f
cc_50 ( N_VSS_CORE_Xg47__4319\/MM0_b N_VDD_CORE_c_555_n ) capacitor c=0.276479f
cc_51 ( N_VSS_CORE_Xg47__4319\/MM0_b N_VDD_CORE_c_556_n ) capacitor c=0.967005f
cc_52 ( N_VSS_CORE_Xg47__4319\/MM0_b N_VDD_CORE_c_557_n ) capacitor c=0.352437f
cc_53 ( N_VSS_CORE_Xg47__4319\/MM0_b N_VDD_CORE_c_558_n ) capacitor c=2.71256f
cc_54 ( N_VSS_CORE_c_63_p N_VDD_CORE_c_558_n ) capacitor c=0.245542f
cc_55 ( N_VSS_CORE_Xg47__4319\/MM0_b N_VDD_CORE_c_560_n ) capacitor c=0.240909f
cc_56 ( N_VSS_CORE_Xg47__4319\/MM0_b N_VDD_CORE_c_561_n ) capacitor c=0.067142f
cc_57 ( N_VSS_CORE_Xg47__4319\/MM0_b N_VDD_CORE_c_562_n ) capacitor c=0.276479f
cc_58 ( N_VSS_CORE_Xg47__4319\/MM0_b N_VDD_CORE_c_563_n ) capacitor c=6.02417f
cc_59 ( N_VSS_CORE_Xg47__4319\/MM0_b N_VDD_CORE_c_564_n ) capacitor c=0.352468f
cc_60 ( N_VSS_CORE_Xg47__4319\/MM0_b N_VDD_CORE_c_565_n ) capacitor c=0.276479f
cc_61 ( N_VSS_CORE_Xg47__4319\/MM0_b N_VDD_CORE_c_566_n ) capacitor c=0.240909f
cc_62 ( N_VSS_CORE_Xg47__4319\/MM0_b N_VDD_CORE_c_567_n ) capacitor c=0.067142f
cc_63 ( N_VSS_CORE_Xg47__4319\/MM0_b N_VDD_CORE_c_568_n ) capacitor c=0.352468f
cc_64 ( N_VSS_CORE_Xg47__4319\/MM0_b N_VDD_CORE_c_569_n ) capacitor c=6.9352f
cc_65 ( N_VSS_CORE_Xg47__4319\/MM0_b N_VDD_CORE_c_570_n ) capacitor c=0.276479f
cc_66 ( N_VSS_CORE_Xg47__4319\/MM0_b N_VDD_CORE_c_571_n ) capacitor c=0.240909f
cc_67 ( N_VSS_CORE_Xg47__4319\/MM0_b N_VDD_CORE_c_572_n ) capacitor c=0.0671336f
cc_68 ( N_VSS_CORE_Xg47__4319\/MM0_b N_VDD_CORE_c_573_n ) capacitor c=0.352468f
cc_69 ( N_VSS_CORE_Xg47__4319\/MM0_b N_VDD_CORE_c_574_n ) capacitor c=4.88002f
cc_70 ( N_VSS_CORE_Xg47__4319\/MM0_b N_VDD_CORE_c_575_n ) capacitor c=0.240909f
cc_71 ( N_VSS_CORE_Xg47__4319\/MM0_b N_VDD_CORE_c_576_n ) capacitor c=0.067142f
cc_72 ( N_VSS_CORE_Xg47__4319\/MM0_b N_VDD_CORE_c_577_n ) capacitor c=0.276479f
cc_73 ( N_VSS_CORE_Xg47__4319\/MM0_b N_VDD_CORE_c_578_n ) capacitor c=10.1973f
cc_74 ( N_VSS_CORE_Xg47__4319\/MM0_b N_VDD_CORE_c_579_n ) capacitor c=0.352468f
cc_75 ( N_VSS_CORE_c_84_p N_VDD_CORE_c_580_n ) capacitor c=0.245542f
cc_76 ( N_VSS_CORE_c_85_p N_VDD_CORE_c_580_n ) capacitor c=0.245542f
cc_77 ( N_VSS_CORE_c_86_p N_VDD_CORE_c_580_n ) capacitor c=0.245542f
cc_78 ( N_VSS_CORE_c_87_p N_VDD_CORE_c_580_n ) capacitor c=0.245542f
cc_79 ( N_VSS_CORE_Xg47__4319\/MM0_b N_VDD_CORE_c_580_n ) capacitor c=3.89494f
cc_80 ( N_VSS_CORE_Xg47__4319\/MM0_b N_VDD_CORE_c_585_n ) capacitor c=0.276479f
cc_81 ( N_VSS_CORE_Xg47__4319\/MM0_b N_VDD_CORE_c_586_n ) capacitor c=0.240909f
cc_82 ( N_VSS_CORE_Xg47__4319\/MM0_b N_VDD_CORE_c_587_n ) capacitor c=0.067142f
cc_83 ( N_VSS_CORE_Xg47__4319\/MM0_b N_VDD_CORE_c_588_n ) capacitor c=0.352468f
cc_84 ( N_VSS_CORE_Xg47__4319\/MM0_b N_VDD_CORE_c_589_n ) capacitor c=10.4716f
cc_85 ( N_VSS_CORE_Xg47__4319\/MM0_b N_VDD_CORE_c_590_n ) capacitor c=0.276479f
cc_86 ( N_VSS_CORE_Xg47__4319\/MM0_b N_VDD_CORE_c_591_n ) capacitor c=0.240909f
cc_87 ( N_VSS_CORE_Xg47__4319\/MM0_b N_VDD_CORE_c_592_n ) capacitor c=0.067142f
cc_88 ( N_VSS_CORE_Xg47__4319\/MM0_b N_VDD_CORE_c_593_n ) capacitor c=0.352468f
cc_89 ( N_VSS_CORE_Xg47__4319\/MM0_b N_VDD_CORE_c_594_n ) capacitor c=4.88002f
cc_90 ( N_VSS_CORE_Xg47__4319\/MM0_b N_VDD_CORE_c_595_n ) capacitor c=0.240909f
cc_91 ( N_VSS_CORE_Xg47__4319\/MM0_b N_VDD_CORE_c_596_n ) capacitor c=0.0671336f
cc_92 ( N_VSS_CORE_Xg47__4319\/MM0_b N_VDD_CORE_c_597_n ) capacitor c=0.276479f
cc_93 ( N_VSS_CORE_Xg47__4319\/MM0_b N_VDD_CORE_c_598_n ) capacitor c=4.88002f
cc_94 ( N_VSS_CORE_Xg47__4319\/MM0_b N_VDD_CORE_c_599_n ) capacitor c=0.352468f
cc_95 ( N_VSS_CORE_Xg47__4319\/MM0_b N_VDD_CORE_c_600_n ) capacitor c=0.240909f
cc_96 ( N_VSS_CORE_Xg47__4319\/MM0_b N_VDD_CORE_c_601_n ) capacitor c=0.067142f
cc_97 ( N_VSS_CORE_Xg47__4319\/MM0_b N_VDD_CORE_c_602_n ) capacitor c=0.276479f
cc_98 ( N_VSS_CORE_Xg47__4319\/MM0_b N_VDD_CORE_c_603_n ) capacitor c=4.88002f
cc_99 ( N_VSS_CORE_Xg47__4319\/MM0_b N_VDD_CORE_c_604_n ) capacitor c=0.352468f
cc_100 ( N_VSS_CORE_c_109_p N_VDD_CORE_c_605_n ) capacitor c=0.245542f
cc_101 ( N_VSS_CORE_Xg47__4319\/MM0_b N_VDD_CORE_c_605_n ) capacitor c=2.71256f
cc_102 ( N_VSS_CORE_Xg47__4319\/MM0_b N_VDD_CORE_c_607_n ) capacitor c=6.08646f
cc_103 ( N_VSS_CORE_Xg47__4319\/MM0_b N_VDD_CORE_c_608_n ) capacitor c=5.99167f
cc_104 ( N_VSS_CORE_Xg47__4319\/MM0_b N_VDD_CORE_c_609_n ) capacitor c=7.93305f
cc_105 ( N_VSS_CORE_Xg47__4319\/MM0_b N_VDD_CORE_c_610_n ) capacitor c=2.29587f
cc_106 ( N_VSS_CORE_c_115_p N_VDD_CORE_c_610_n ) capacitor c=0.00320336f
cc_107 ( N_VSS_CORE_Xg47__4319\/MM0_b N_VDD_CORE_c_612_n ) capacitor c=2.24914f
cc_108 ( N_VSS_CORE_Xg47__4319\/MM0_b N_VDD_CORE_c_613_n ) capacitor c=7.9451f
cc_109 ( N_VSS_CORE_Xg47__4319\/MM0_b N_VDD_CORE_c_614_n ) capacitor c=7.9451f
cc_110 ( N_VSS_CORE_Xg47__4319\/MM0_b N_VDD_CORE_c_615_n ) capacitor c=7.9451f
cc_111 ( N_VSS_CORE_c_120_p N_VDD_CORE_c_616_n ) capacitor c=0.00130446f
cc_112 ( N_VSS_CORE_c_121_p N_VDD_CORE_c_617_n ) capacitor c=8.35612e-19
cc_113 ( N_VSS_CORE_c_122_p N_VDD_CORE_c_618_n ) capacitor c=0.00145351f
cc_114 ( N_VSS_CORE_Xg47__4319\/MM0_b N_VDD_CORE_c_619_n ) capacitor \
 c=0.0994645f
cc_115 ( N_VSS_CORE_Xg47__4319\/MM0_b N_VDD_CORE_c_620_n ) capacitor c=0.102456f
cc_116 ( N_VSS_CORE_c_125_p N_VDD_CORE_c_621_n ) capacitor c=0.00146152f
cc_117 ( N_VSS_CORE_Xg47__4319\/MM0_b VDD_CORE ) capacitor c=6.33064f
cc_118 ( N_VSS_CORE_Xg47__4319\/MM0_b N_VDD_CORE_c_623_n ) capacitor c=8.61419f
cc_119 ( N_VSS_CORE_Xg47__4319\/MM0_b N_C_c_925_n ) capacitor c=0.0293874f
cc_120 ( N_VSS_CORE_c_40_p N_C_c_925_n ) capacitor c=0.0104977f
cc_121 ( N_VSS_CORE_Xg47__4319\/MM0_b N_C_c_927_n ) capacitor c=0.338773f
cc_122 ( N_VSS_CORE_c_40_p N_C_c_927_n ) capacitor c=0.163927f
cc_123 ( N_VSS_CORE_Xg47__4319\/MM0_b N_C_c_929_n ) capacitor c=0.0495304f
cc_124 ( N_VSS_CORE_c_40_p N_C_c_929_n ) capacitor c=0.00564046f
cc_125 ( N_VSS_CORE_c_134_p N_C_c_931_n ) capacitor c=0.324442f
cc_126 ( N_VSS_CORE_c_135_p N_C_c_931_n ) capacitor c=0.246999f
cc_127 ( N_VSS_CORE_c_136_p N_C_c_931_n ) capacitor c=0.168356f
cc_128 ( N_VSS_CORE_c_137_p N_C_c_931_n ) capacitor c=0.263723f
cc_129 ( N_VSS_CORE_Xg47__4319\/MM0_b N_C_c_931_n ) capacitor c=1.68757f
cc_130 ( N_VSS_CORE_c_40_p N_C_c_931_n ) capacitor c=0.369205f
cc_131 ( N_VSS_CORE_Xg47__4319\/MM0_b N_C_Xg43__2398\/MM0_g ) capacitor \
 c=0.0758605f
cc_132 ( N_VSS_CORE_c_141_p N_C_Xg43__2398\/MM0_g ) capacitor c=0.0140982f
cc_133 ( N_VSS_CORE_c_120_p N_C_Xg43__2398\/MM0_g ) capacitor c=0.00541135f
cc_134 ( N_VSS_CORE_Xg47__4319\/MM0_b N_C_c_940_n ) capacitor c=0.0607417f
cc_135 ( N_VSS_CORE_Xg47__4319\/MM0_b N_C_c_941_n ) capacitor c=0.0193648f
cc_136 ( N_VSS_CORE_Xg47__4319\/MM0_b N_C_c_942_n ) capacitor c=0.0131916f
cc_137 ( N_VSS_CORE_c_40_p N_C_c_942_n ) capacitor c=0.00233972f
cc_138 ( N_VSS_CORE_Xg47__4319\/MM0_b N_C_c_944_n ) capacitor c=0.11977f
cc_139 ( N_VSS_CORE_c_40_p N_C_c_944_n ) capacitor c=0.00728928f
cc_140 ( N_VSS_CORE_c_141_p N_C_c_944_n ) capacitor c=0.00811982f
cc_141 ( N_VSS_CORE_Xg47__4319\/MM0_b N_C_c_947_n ) capacitor c=0.0667964f
cc_142 ( N_VSS_CORE_c_40_p N_C_c_947_n ) capacitor c=0.0049666f
cc_143 ( N_VSS_CORE_Xg47__4319\/MM0_b N_n_3_c_1000_n ) capacitor c=0.044168f
cc_144 ( N_VSS_CORE_c_153_p N_n_3_c_1000_n ) capacitor c=0.00732873f
cc_145 ( N_VSS_CORE_c_154_p N_n_3_c_1000_n ) capacitor c=0.0217302f
cc_146 ( N_VSS_CORE_Xg47__4319\/MM0_b N_n_3_c_1003_n ) capacitor c=0.0148072f
cc_147 ( N_VSS_CORE_c_154_p N_n_3_c_1004_n ) capacitor c=0.013202f
cc_148 ( N_VSS_CORE_Xg47__4319\/MM0_b N_n_3_c_1005_n ) capacitor c=0.0659617f
cc_149 ( N_VSS_CORE_Xg47__4319\/MM0_b N_n_3_c_1006_n ) capacitor c=0.0161173f
cc_150 ( N_VSS_CORE_c_40_p N_n_3_c_1006_n ) capacitor c=0.00592634f
cc_151 ( N_VSS_CORE_Xg47__4319\/MM0_b N_n_3_c_1008_n ) capacitor c=0.021505f
cc_152 ( N_VSS_CORE_c_40_p N_n_3_c_1008_n ) capacitor c=0.00359477f
cc_153 ( N_VSS_CORE_Xg47__4319\/MM0_b N_n_3_c_1010_n ) capacitor c=2.41053f
cc_154 ( N_VSS_CORE_c_153_p N_n_3_c_1010_n ) capacitor c=0.0181795f
cc_155 ( N_VSS_CORE_Xg45__5107\/MM1_s N_n_3_c_1010_n ) capacitor c=0.00115692f
cc_156 ( N_VSS_CORE_c_12_p N_n_3_c_1010_n ) capacitor c=0.881588f
cc_157 ( N_VSS_CORE_c_154_p N_n_3_c_1010_n ) capacitor c=0.00342998f
cc_158 ( N_VSS_CORE_Xg47__4319\/MM0_b N_n_3_c_1015_n ) capacitor c=0.0380914f
cc_159 ( N_VSS_CORE_c_12_p N_n_3_c_1015_n ) capacitor c=0.0106545f
cc_160 ( N_VSS_CORE_Xg47__4319\/MM0_b N_n_3_c_1017_n ) capacitor c=0.00342933f
cc_161 ( N_VSS_CORE_c_154_p N_n_3_c_1017_n ) capacitor c=0.0225037f
cc_162 ( N_VSS_CORE_Xg47__4319\/MM0_b N_n_3_c_1019_n ) capacitor c=1.79857f
cc_163 ( N_VSS_CORE_c_12_p N_n_3_c_1019_n ) capacitor c=0.00607756f
cc_164 ( N_VSS_CORE_c_13_p N_n_3_c_1019_n ) capacitor c=0.0769818f
cc_165 ( N_VSS_CORE_c_39_p N_n_3_c_1019_n ) capacitor c=0.0769818f
cc_166 ( N_VSS_CORE_c_40_p N_n_3_c_1019_n ) capacitor c=0.00240965f
cc_167 ( N_VSS_CORE_Xg47__4319\/MM0_b N_n_3_Xtemp_reg\/MM4_g ) capacitor \
 c=0.0927678f
cc_168 ( N_VSS_CORE_c_115_p N_n_3_Xtemp_reg\/MM4_g ) capacitor c=0.0118083f
cc_169 ( N_VSS_CORE_c_115_p N_n_3_c_1026_n ) capacitor c=0.00594512f
cc_170 ( N_VSS_CORE_Xg47__4319\/MM0_b N_n_3_c_1027_n ) capacitor c=0.0209568f
cc_171 ( N_VSS_CORE_c_134_p N_clk_c_1134_n ) capacitor c=0.416702f
cc_172 ( N_VSS_CORE_Xg47__4319\/MM0_b N_clk_c_1134_n ) capacitor c=2.40007f
cc_173 ( N_VSS_CORE_Xg47__4319\/MM0_b N_clk_Xtemp_reg\/MM6_g ) capacitor \
 c=0.05615f
cc_174 ( N_VSS_CORE_c_115_p N_clk_Xtemp_reg\/MM6_g ) capacitor c=0.0120298f
cc_175 ( N_VSS_CORE_Xg47__4319\/MM0_b N_clk_Xtemp_reg\/MM7_g ) capacitor \
 c=0.0481867f
cc_176 ( N_VSS_CORE_Xg47__4319\/MM0_b N_clk_Xtemp_reg\/MM2_g ) capacitor \
 c=0.0125693f
cc_177 ( N_VSS_CORE_Xg47__4319\/MM0_b N_clk_c_1140_n ) capacitor c=0.0476354f
cc_178 ( N_VSS_CORE_c_120_p N_clk_c_1140_n ) capacitor c=3.33958e-19
cc_179 ( N_VSS_CORE_Xg47__4319\/MM0_b N_clk_c_1142_n ) capacitor c=0.0101153f
cc_180 ( N_VSS_CORE_Xg47__4319\/MM0_b N_clk_c_1143_n ) capacitor c=0.187774f
cc_181 ( N_VSS_CORE_c_120_p N_clk_c_1143_n ) capacitor c=2.62147e-19
cc_182 ( N_VSS_CORE_c_191_p N_clk_c_1143_n ) capacitor c=0.00217251f
cc_183 ( N_VSS_CORE_c_121_p N_clk_c_1143_n ) capacitor c=0.020942f
cc_184 ( N_VSS_CORE_Xg47__4319\/MM0_b N_clk_c_1147_n ) capacitor c=0.00798403f
cc_185 ( N_VSS_CORE_Xg47__4319\/MM0_b N_Xtemp_reg\/net2_c_1242_n ) capacitor \
 c=0.0159649f
cc_186 ( N_VSS_CORE_Xg47__4319\/MM0_b N_Xtemp_reg\/net2_c_1243_n ) capacitor \
 c=0.0466399f
cc_187 ( N_VSS_CORE_c_115_p N_Xtemp_reg\/net2_c_1243_n ) capacitor c=0.0307343f
cc_188 ( N_VSS_CORE_c_40_p N_Xtemp_reg\/net2_c_1245_n ) capacitor c=0.00383182f
cc_189 ( N_VSS_CORE_Xg47__4319\/MM0_b N_Xtemp_reg\/net2_c_1246_n ) capacitor \
 c=0.020816f
cc_190 ( N_VSS_CORE_c_40_p N_Xtemp_reg\/net2_c_1246_n ) capacitor c=0.0311502f
cc_191 ( N_VSS_CORE_Xg47__4319\/MM0_b N_Xtemp_reg\/net2_Xtemp_reg\/MM5_g ) \
 capacitor c=0.057101f
cc_192 ( N_VSS_CORE_c_115_p N_Xtemp_reg\/net2_Xtemp_reg\/MM5_g ) capacitor \
 c=0.00462224f
cc_193 ( N_VSS_CORE_Xg47__4319\/MM0_b N_Xtemp_reg\/net2_c_1250_n ) capacitor \
 c=0.051154f
cc_194 ( N_VSS_CORE_c_115_p N_Xtemp_reg\/net2_c_1250_n ) capacitor c=0.00427827f
cc_195 ( N_VSS_CORE_Xg47__4319\/MM0_b N_Xtemp_reg\/net2_c_1252_n ) capacitor \
 c=0.184059f
cc_196 ( N_VSS_CORE_c_115_p N_Xtemp_reg\/net2_c_1252_n ) capacitor c=0.0299761f
cc_197 ( N_VSS_CORE_c_120_p N_Xtemp_reg\/net2_c_1252_n ) capacitor c=0.00960148f
cc_198 ( N_VSS_CORE_c_207_p N_Xtemp_reg\/net2_c_1252_n ) capacitor c=0.0151669f
cc_199 ( N_VSS_CORE_Xg47__4319\/MM0_b N_Xtemp_reg\/net2_c_1256_n ) capacitor \
 c=0.0206841f
cc_200 ( N_VSS_CORE_c_40_p N_Xtemp_reg\/net2_c_1256_n ) capacitor c=0.0151669f
cc_201 ( N_VSS_CORE_Xg47__4319\/MM0_b N_Xtemp_reg\/net2_c_1258_n ) capacitor \
 c=0.0689353f
cc_202 ( N_VSS_CORE_c_40_p N_Xtemp_reg\/net2_c_1258_n ) capacitor c=0.00219119f
cc_203 ( N_VSS_CORE_c_115_p N_Xtemp_reg\/net2_c_1258_n ) capacitor c=3.00229e-19
cc_204 ( N_VSS_CORE_Xg47__4319\/MM0_b N_rst_c_1313_n ) capacitor c=0.0174753f
cc_205 ( N_VSS_CORE_c_115_p N_rst_c_1313_n ) capacitor c=0.025679f
cc_206 ( N_VSS_CORE_c_120_p N_rst_c_1313_n ) capacitor c=0.0400057f
cc_207 ( N_VSS_CORE_c_216_p N_rst_c_1313_n ) capacitor c=0.00323064f
cc_208 ( N_VSS_CORE_Xg47__4319\/MM0_b N_rst_c_1317_n ) capacitor c=0.010002f
cc_209 ( N_VSS_CORE_c_120_p N_rst_c_1317_n ) capacitor c=0.0338344f
cc_210 ( N_VSS_CORE_c_216_p N_rst_c_1317_n ) capacitor c=0.0205871f
cc_211 ( N_VSS_CORE_Xg47__4319\/MM0_b N_rst_c_1320_n ) capacitor c=0.0342235f
cc_212 ( N_VSS_CORE_c_115_p N_rst_c_1320_n ) capacitor c=0.0183694f
cc_213 ( N_VSS_CORE_c_120_p N_rst_c_1320_n ) capacitor c=0.00779202f
cc_214 ( N_VSS_CORE_c_216_p N_rst_c_1320_n ) capacitor c=0.00830662f
cc_215 ( N_VSS_CORE_c_134_p N_rst_c_1324_n ) capacitor c=0.239143f
cc_216 ( N_VSS_CORE_c_135_p N_rst_c_1324_n ) capacitor c=0.918065f
cc_217 ( N_VSS_CORE_c_136_p N_rst_c_1324_n ) capacitor c=0.270012f
cc_218 ( N_VSS_CORE_c_137_p N_rst_c_1324_n ) capacitor c=0.348774f
cc_219 ( N_VSS_CORE_Xg47__4319\/MM0_b N_rst_c_1324_n ) capacitor c=1.82925f
cc_220 ( N_VSS_CORE_c_40_p N_rst_c_1324_n ) capacitor c=0.70941f
cc_221 ( N_VSS_CORE_c_115_p N_rst_c_1324_n ) capacitor c=0.0143893f
cc_222 ( N_VSS_CORE_c_120_p N_rst_c_1324_n ) capacitor c=0.00903749f
cc_223 ( N_VSS_CORE_c_216_p N_rst_c_1324_n ) capacitor c=5.1552e-19
cc_224 ( N_VSS_CORE_Xg47__4319\/MM0_b N_rst_Xtemp_reg\/MM25_g ) capacitor \
 c=0.0736449f
cc_225 ( N_VSS_CORE_c_216_p N_rst_Xtemp_reg\/MM25_g ) capacitor c=0.0120771f
cc_226 ( N_VSS_CORE_c_121_p N_rst_Xtemp_reg\/MM25_g ) capacitor c=0.00754126f
cc_227 ( N_VSS_CORE_Xg47__4319\/MM0_b N_rst_c_1336_n ) capacitor c=0.0542863f
cc_228 ( N_VSS_CORE_c_115_p N_rst_c_1336_n ) capacitor c=0.00269712f
cc_229 ( N_VSS_CORE_c_120_p N_rst_c_1336_n ) capacitor c=0.0134648f
cc_230 ( N_VSS_CORE_c_216_p N_rst_c_1336_n ) capacitor c=0.0103238f
cc_231 ( N_VSS_CORE_c_240_p N_rst_c_1336_n ) capacitor c=0.00160629f
cc_232 ( N_VSS_CORE_Xg47__4319\/MM0_b N_Y_c_1395_n ) capacitor c=0.291308f
cc_233 ( N_VSS_CORE_c_40_p N_Y_c_1395_n ) capacitor c=0.0668742f
cc_234 ( N_VSS_CORE_Xg47__4319\/MM0_b N_Y_c_1397_n ) capacitor c=0.0317185f
cc_235 ( N_VSS_CORE_c_40_p N_Y_c_1397_n ) capacitor c=0.00469893f
cc_236 ( N_VSS_CORE_Xg47__4319\/MM0_b N_Y_c_1399_n ) capacitor c=0.0305373f
cc_237 ( N_VSS_CORE_Xg47__4319\/MM0_b N_Y_c_1400_n ) capacitor c=0.270771f
cc_238 ( N_VSS_CORE_c_40_p N_Y_c_1400_n ) capacitor c=0.00635848f
cc_239 ( N_VSS_CORE_Xg47__4319\/MM0_b N_Y_c_1402_n ) capacitor c=0.0198041f
cc_240 ( N_VSS_CORE_Xg47__4319\/MM0_b N_Y_c_1403_n ) capacitor c=0.0249306f
cc_241 ( N_VSS_CORE_Xg47__4319\/MM0_b N_Y_c_1404_n ) capacitor c=0.0546643f
cc_242 ( N_VSS_CORE_Xg47__4319\/MM0_b N_Y_c_1405_n ) capacitor c=0.0174135f
cc_243 ( N_VSS_CORE_c_40_p N_Y_c_1405_n ) capacitor c=0.0146208f
cc_244 ( N_VSS_CORE_c_40_p N_Y_c_1407_n ) capacitor c=0.00286514f
cc_245 ( N_VSS_CORE_c_141_p N_Y_c_1407_n ) capacitor c=0.00465828f
cc_246 ( N_VSS_CORE_c_120_p N_Y_c_1407_n ) capacitor c=0.00390066f
cc_247 ( N_VSS_CORE_Xg47__4319\/MM0_b N_Y_c_1410_n ) capacitor c=0.0891135f
cc_248 ( N_VSS_CORE_c_141_p N_Y_c_1410_n ) capacitor c=0.0153329f
cc_249 ( N_VSS_CORE_c_120_p N_Y_c_1410_n ) capacitor c=0.0205386f
cc_250 ( N_VSS_CORE_c_259_p N_Y_c_1410_n ) capacitor c=0.0153017f
cc_251 ( N_VSS_CORE_c_120_p N_Y_c_1414_n ) capacitor c=0.00394513f
cc_252 ( N_VSS_CORE_c_259_p N_Y_c_1414_n ) capacitor c=0.00482248f
cc_253 ( N_VSS_CORE_c_240_p N_Y_c_1414_n ) capacitor c=0.00642772f
cc_254 ( N_VSS_CORE_Xg47__4319\/MM0_b N_Y_c_1417_n ) capacitor c=0.0362989f
cc_255 ( N_VSS_CORE_c_40_p N_Y_c_1417_n ) capacitor c=0.00341805f
cc_256 ( N_VSS_CORE_Xg47__4319\/MM0_b N_Y_c_1419_n ) capacitor c=0.0247016f
cc_257 ( N_VSS_CORE_Xg47__4319\/MM0_b N_Y_c_1420_n ) capacitor c=0.0534256f
cc_258 ( N_VSS_CORE_c_134_p N_Y_c_1421_n ) capacitor c=0.97911f
cc_259 ( N_VSS_CORE_c_136_p N_Y_c_1421_n ) capacitor c=0.201709f
cc_260 ( N_VSS_CORE_c_269_p N_Y_c_1421_n ) capacitor c=0.127199f
cc_261 ( N_VSS_CORE_Xg47__4319\/MM0_b N_Y_c_1421_n ) capacitor c=1.54666f
cc_262 ( N_VSS_CORE_Xg47__4319\/MM0_b N_Y_Xg43__2398\/MM0_d ) capacitor \
 c=0.0109344f
cc_263 ( N_VSS_CORE_c_120_p N_Y_Xg43__2398\/MM0_d ) capacitor c=0.00973683f
cc_264 ( N_VSS_CORE_Xg47__4319\/MM0_b N_temp_c_1487_n ) capacitor c=0.0882764f
cc_265 ( N_VSS_CORE_c_240_p N_temp_c_1487_n ) capacitor c=0.0399584f
cc_266 ( N_VSS_CORE_Xg47__4319\/MM0_b N_temp_c_1489_n ) capacitor c=0.0061813f
cc_267 ( N_VSS_CORE_c_276_p N_temp_c_1489_n ) capacitor c=0.0135129f
cc_268 ( N_VSS_CORE_Xtemp_reg\/MM8_s N_temp_c_1489_n ) capacitor c=0.00441249f
cc_269 ( N_VSS_CORE_Xg47__4319\/MM0_b N_temp_c_1492_n ) capacitor c=0.00687192f
cc_270 ( N_VSS_CORE_c_191_p N_temp_c_1492_n ) capacitor c=7.80018e-19
cc_271 ( N_VSS_CORE_c_276_p N_temp_c_1492_n ) capacitor c=0.0123716f
cc_272 ( N_VSS_CORE_Xtemp_reg\/MM8_s N_temp_c_1492_n ) capacitor c=0.00478055f
cc_273 ( N_VSS_CORE_Xg47__4319\/MM0_b N_temp_c_1496_n ) capacitor c=0.0431769f
cc_274 ( N_VSS_CORE_c_276_p N_temp_c_1496_n ) capacitor c=0.034241f
cc_275 ( N_VSS_CORE_c_284_p N_temp_c_1496_n ) capacitor c=0.00969013f
cc_276 ( N_VSS_CORE_Xg47__4319\/MM0_b N_temp_c_1499_n ) capacitor c=0.0362408f
cc_277 ( N_VSS_CORE_c_191_p N_temp_c_1499_n ) capacitor c=0.00942544f