// File: mac_4x4_wrapper_chip.pex.netlist
// Created: Mon Jun 22 19:54:10 2026
// Program "Calibre xRC"
// Version "v2022.4_37.20"
// 
simulator lang=spectre
include "mac_4x4_wrapper_chip.pex.netlist.pex"
subckt mac_4x4_wrapper_chip (  VSSO_CORE VSS_CORE VDD_CORE VDDO_CORE \
 mac_out\[0\] mac_out\[1\] mac_out\[2\] mac_out\[3\] mac_out\[12\] \
 mac_out\[13\] mac_out\[14\] mac_out\[15\] mac_out\[4\] mac_out\[5\] \
 mac_out\[6\] mac_out\[7\] mac_out\[8\] mac_out\[9\] mac_out\[10\] \
 mac_out\[11\] clk enable rst a\[0\] a\[1\] a\[2\] a\[3\] b\[0\] b\[1\] b\[2\] \
 b\[3\] )
// 
// b[3]	b[3]
// b[2]	b[2]
// b[1]	b[1]
// b[0]	b[0]
// a[3]	a[3]
// a[2]	a[2]
// a[1]	a[1]
// a[0]	a[0]
// rst	rst
// enable	enable
// clk	clk
// mac_out[11]	mac_out[11]
// mac_out[10]	mac_out[10]
// mac_out[9]	mac_out[9]
// mac_out[8]	mac_out[8]
// mac_out[7]	mac_out[7]
// mac_out[6]	mac_out[6]
// mac_out[5]	mac_out[5]
// mac_out[4]	mac_out[4]
// mac_out[15]	mac_out[15]
// mac_out[14]	mac_out[14]
// mac_out[13]	mac_out[13]
// mac_out[12]	mac_out[12]
// mac_out[3]	mac_out[3]
// mac_out[2]	mac_out[2]
// mac_out[1]	mac_out[1]
// mac_out[0]	mac_out[0]
// VDDO_CORE	VDDO_CORE
// VDD_CORE	VDD_CORE
// VSS_CORE	VSS_CORE
// VSSO_CORE	VSSO_CORE
mXdut\/Xg1180__1666\/MM4 ( N_noxref_98_Xdut\/Xg1180__1666\/MM4_d \
 N_Xdut\/FE_PHN14_b_reg_0_Xdut\/Xg1180__1666\/MM4_g \
 N_Xdut\/n_59_Xdut\/Xg1180__1666\/MM4_s N_VSS_CORE_Xpv0i_VSS_0\/M22_b ) n18 \
 l=1.85766e-07 w=1.18213e-06 ad=4.7295e-13 as=3.035e-13 pd=3.17213e-06 \
 ps=1.73213e-06 postlayout=1 //x=589.86 //y=1341.91
mXdut\/Xg1180__1666\/MM3 ( N_noxref_98_Xdut\/Xg1180__1666\/MM3_d \
 N_Xdut\/FE_PHN15_a_reg_1_Xdut\/Xg1180__1666\/MM3_g \
 N_Xdut\/n_59_Xdut\/Xg1180__1666\/MM4_s N_VSS_CORE_Xpv0i_VSS_0\/M22_b ) n18 \
 l=1.85766e-07 w=1.18213e-06 ad=2.78134e-13 as=3.035e-13 pd=1.69049e-06 \
 ps=1.73213e-06 postlayout=1 //x=590.59 //y=1341.37
mXdut\/Xg1180__1666\/MM2 ( N_noxref_98_Xdut\/Xg1180__1666\/MM3_d \
 N_Xdut\/FE_PHN16_a_reg_0_Xdut\/Xg1180__1666\/MM2_g \
 N_VSS_CORE_Xdut\/Xg1180__1666\/MM2_s N_VSS_CORE_Xpv0i_VSS_0\/M22_b ) n18 \
 l=1.8e-07 w=1.12e-06 ad=2.63516e-13 as=2.51712e-13 pd=1.60164e-06 \
 ps=1.58052e-06 postlayout=1 //x=591.34 //y=1341.37
mXdut\/Xg1180__1666\/MM1 ( N_noxref_98_Xdut\/Xg1180__1666\/MM1_d \
 N_Xdut\/FE_PHN13_b_reg_1_Xdut\/Xg1180__1666\/MM1_g \
 N_VSS_CORE_Xdut\/Xg1180__1666\/MM2_s N_VSS_CORE_Xpv0i_VSS_0\/M22_b ) n18 \
 l=1.86489e-07 w=1.19042e-06 ad=4.4595e-13 as=2.67538e-13 pd=3.12042e-06 \
 ps=1.67989e-06 postlayout=1 //x=591.91 //y=1341.94
mXdut\/Xg1218\/MM1 ( N_VSS_CORE_Xdut\/Xg1218\/MM1_d \
 N_FE_PHN12_rst_pad_Xdut\/Xg1218\/MM1_g N_Xdut\/n_34_Xdut\/Xg1218\/MM1_s \
 N_VSS_CORE_Xpv0i_VSS_0\/M22_b ) n18 l=1.8e-07 w=1.01e-06 ad=4.949e-13 \
 as=4.949e-13 pd=3e-06 ps=3e-06 postlayout=1 //x=592.45 //y=1271.01
mXdut\/Xg2\/MM3 ( N_VSS_CORE_Xdut\/Xg2\/MM3_d N_Xdut\/Xg2\/7_Xdut\/Xg2\/MM3_g \
 N_Xdut\/n_122_Xdut\/Xg2\/MM3_s N_VSS_CORE_Xpv0i_VSS_0\/M22_b ) n18 l=1.8e-07 \
 w=1e-06 ad=3.13379e-13 as=4.9e-13 pd=1.82879e-06 ps=2.98e-06 postlayout=1 \
 //x=622.47 //y=1094.94
mXdut\/Xg2\/MM2 ( N_VSS_CORE_Xdut\/Xg2\/MM3_d N_Xdut\/Xg2\/8_Xdut\/Xg2\/MM2_g \
 N_Xdut\/Xg2\/13_Xdut\/Xg2\/MM2_s N_VSS_CORE_Xpv0i_VSS_0\/M22_b ) n18 \
 l=1.8627e-07 w=1.30456e-06 ad=4.08821e-13 as=3.05428e-13 pd=2.38577e-06 \
 ps=1.78838e-06 postlayout=1 //x=623.09 //y=1095.21
mXdut\/Xg2\/MM1 ( N_Xdut\/Xg2\/13_Xdut\/Xg2\/MM2_s \
 N_Xdut\/Xg2\/10_Xdut\/Xg2\/MM1_g N_Xdut\/Xg2\/7_Xdut\/Xg2\/MM1_s \
 N_VSS_CORE_Xpv0i_VSS_0\/M22_b ) n18 l=1.8e-07 w=1.23e-06 ad=2.87972e-13 \
 as=3.444e-13 pd=1.68617e-06 ps=1.79e-06 postlayout=1 //x=623.83 //y=1094.71
mXdut\/Xg2\/MM5 ( N_Xdut\/Xg2\/8_Xdut\/Xg2\/MM5_d \
 N_Xdut\/Xg2\/2_Xdut\/Xg2\/MM5_g N_Xdut\/Xg2\/7_Xdut\/Xg2\/MM1_s \
 N_VSS_CORE_Xpv0i_VSS_0\/M22_b ) n18 l=1.8e-07 w=1.23e-06 ad=4.02305e-13 \
 as=3.444e-13 pd=2.25815e-06 ps=1.79e-06 postlayout=1 //x=624.57 //y=1094.71
mXdut\/Xg1177__2883\/MM2 ( N_Xdut\/n_63_Xdut\/Xg1177__2883\/MM2_d \
 N_Xdut\/n_61_Xdut\/Xg1177__2883\/MM2_g N_noxref_185_Xdut\/Xg1177__2883\/MM2_s \
 N_VSS_CORE_Xpv0i_VSS_0\/M22_b ) n18 l=1.8e-07 w=1.09e-06 ad=5.341e-13 \
 as=2.75193e-13 pd=3.16e-06 ps=1.65725e-06 postlayout=1 //x=624.73 //y=1327.02
mXdut\/Xg2\/MM4 ( N_Xdut\/Xg2\/8_Xdut\/Xg2\/MM5_d \
 N_Xdut\/add_89_32_n_31_Xdut\/Xg2\/MM4_g N_VSS_CORE_Xdut\/Xg2\/MM4_s \
 N_VSS_CORE_Xpv0i_VSS_0\/M22_b ) n18 l=1.8e-07 w=7.2e-07 ad=2.35495e-13 \
 as=3.528e-13 pd=1.32185e-06 ps=2.42e-06 postlayout=1 //x=625.31 //y=1094.71
mXdut\/Xg1177__2883\/MM3 ( N_VSS_CORE_Xdut\/Xg1177__2883\/MM3_d \
 N_Xdut\/n_33_Xdut\/Xg1177__2883\/MM3_g N_noxref_185_Xdut\/Xg1177__2883\/MM2_s \
 N_VSS_CORE_Xpv0i_VSS_0\/M22_b ) n18 l=1.86418e-07 w=1.06213e-06 ad=4.0615e-13 \
 as=2.68157e-13 pd=2.22213e-06 ps=1.61488e-06 postlayout=1 //x=625.35 \
 //y=1327.58
mXdut\/Xg1177__2883\/MM1 ( N_noxref_185_Xdut\/Xg1177__2883\/MM1_d \
 N_Xdut\/n_58_Xdut\/Xg1177__2883\/MM1_g N_VSS_CORE_Xdut\/Xg1177__2883\/MM3_d \
 N_VSS_CORE_Xpv0i_VSS_0\/M22_b ) n18 l=1.86418e-07 w=1.06213e-06 ad=4.1275e-13 \
 as=4.0615e-13 pd=2.89213e-06 ps=2.22213e-06 postlayout=1 //x=626.07 //y=1327.02
mXdut\/Xg2\/MM11 ( N_VSS_CORE_Xdut\/Xg2\/MM11_d \
 N_Xdut\/Xg2\/2_Xdut\/Xg2\/MM11_g N_Xdut\/Xg2\/10_Xdut\/Xg2\/MM11_s \
 N_VSS_CORE_Xpv0i_VSS_0\/M22_b ) n18 l=1.8e-07 w=5.4e-07 ad=1.67023e-13 \
 as=2.646e-13 pd=1.09674e-06 ps=2.06e-06 postlayout=1 //x=626.85 //y=1095.28
mXdut\/Xg2\/MM9 ( N_VSS_CORE_Xdut\/Xg2\/MM11_d N_Xdut\/Xg2\/4_Xdut\/Xg2\/MM9_g \
 N_Xdut\/Xg2\/14_Xdut\/Xg2\/MM9_s N_VSS_CORE_Xpv0i_VSS_0\/M22_b ) n18 \
 l=1.8e-07 w=7.5e-07 ad=2.31977e-13 as=2.1e-13 pd=1.52326e-06 ps=1.31e-06 \
 postlayout=1 //x=627.59 //y=1095.07
mXdut\/Xg2\/MM7 ( N_Xdut\/Xg2\/14_Xdut\/Xg2\/MM9_s \
 N_mac_out_pad\[15\]_Xdut\/Xg2\/MM7_g N_Xdut\/Xg2\/2_Xdut\/Xg2\/MM7_s \
 N_VSS_CORE_Xpv0i_VSS_0\/M22_b ) n18 l=1.8e-07 w=7.5e-07 ad=2.1e-13 as=2.1e-13 \
 pd=1.31e-06 ps=1.31e-06 postlayout=1 //x=628.33 //y=1095.07
mXdut\/Xg2\/MM6 ( N_Xdut\/Xg2\/4_Xdut\/Xg2\/MM6_d \
 N_Xdut\/Xg2\/6_Xdut\/Xg2\/MM6_g N_Xdut\/Xg2\/2_Xdut\/Xg2\/MM7_s \
 N_VSS_CORE_Xpv0i_VSS_0\/M22_b ) n18 l=1.8e-07 w=7.5e-07 ad=2.1e-13 as=2.1e-13 \
 pd=1.31e-06 ps=1.31e-06 postlayout=1 //x=629.07 //y=1095.07
mXdut\/Xg2\/MM10 ( N_Xdut\/Xg2\/4_Xdut\/Xg2\/MM6_d \
 N_Xdut\/FE_PHN63_mult_reg_7_Xdut\/Xg2\/MM10_g N_VSS_CORE_Xdut\/Xg2\/MM10_s \
 N_VSS_CORE_Xpv0i_VSS_0\/M22_b ) n18 l=1.8e-07 w=7.5e-07 ad=2.1e-13 as=2.1e-13 \
 pd=1.31e-06 ps=1.31e-06 postlayout=1 //x=629.81 //y=1095.07
mXdut\/Xg2\/MM8 ( N_VSS_CORE_Xdut\/Xg2\/MM10_s \
 N_mac_out_pad\[15\]_Xdut\/Xg2\/MM8_g N_Xdut\/Xg2\/6_Xdut\/Xg2\/MM8_s \
 N_VSS_CORE_Xpv0i_VSS_0\/M22_b ) n18 l=1.8e-07 w=7.5e-07 ad=2.1e-13 \
 as=3.675e-13 pd=1.31e-06 ps=2.48e-06 postlayout=1 //x=630.55 //y=1095.07
mXdut\/Xg2__9945\/MM3 ( N_Xdut\/n_33_Xdut\/Xg2__9945\/MM3_d \
 N_Xdut\/Xg2__9945\/3_Xdut\/Xg2__9945\/MM3_g N_VSS_CORE_Xdut\/Xg2__9945\/MM3_s \
 N_VSS_CORE_Xpv0i_VSS_0\/M22_b ) n18 l=1.85718e-07 w=1.19213e-06 ad=4.6895e-13 \
 as=4.72179e-13 pd=3.15213e-06 ps=2.32037e-06 postlayout=1 //x=631.88 \
 //y=1350.46
mXdut\/Xg2__9945\/MM4 ( Xdut\/Xg2__9945\/8 \
 N_Xdut\/FE_PHN100_a_reg_3_Xdut\/Xg2__9945\/MM4_g \
 N_VSS_CORE_Xdut\/Xg2__9945\/MM3_s N_VSS_CORE_Xpv0i_VSS_0\/M22_b ) n18 \
 l=1.8e-07 w=9e-07 ad=1.26e-13 as=3.56471e-13 pd=1.18e-06 ps=1.75176e-06 \
 postlayout=1 //x=632.92 //y=1349.82
mXdut\/Xg2__9945\/MM2 ( Xdut\/Xg2__9945\/8 \
 N_Xdut\/Xg2__9945\/5_Xdut\/Xg2__9945\/MM2_g \
 N_Xdut\/Xg2__9945\/3_Xdut\/Xg2__9945\/MM2_s N_VSS_CORE_Xpv0i_VSS_0\/M22_b ) \
 n18 l=1.8e-07 w=9e-07 ad=1.26e-13 as=4.41e-13 pd=1.18e-06 ps=2.78e-06 \
 postlayout=1 //x=633.38 //y=1349.82
mXdut\/Xg2__9945\/MM1 ( N_Xdut\/Xg2__9945\/5_Xdut\/Xg2__9945\/MM1_d \
 N_Xdut\/FE_PHN13_b_reg_1_Xdut\/Xg2__9945\/MM1_g \
 N_VSS_CORE_Xdut\/Xg2__9945\/MM1_s N_VSS_CORE_Xpv0i_VSS_0\/M22_b ) n18 \
 l=1.8e-07 w=4.8e-07 ad=2.352e-13 as=2.496e-13 pd=1.94e-06 ps=2e-06 \
 postlayout=1 //x=634.38 //y=1349.84
mXdut\/Xg1150__5107\/MM2 ( N_VSS_CORE_Xdut\/Xg1150__5107\/MM2_d \
 N_Xdut\/n_76_Xdut\/Xg1150__5107\/MM2_g noxref_372 \
 N_VSS_CORE_Xpv0i_VSS_0\/M22_b ) n18 l=1.88023e-07 w=1.13284e-06 ad=4.32e-13 \
 as=2.21084e-13 pd=3.02284e-06 ps=1.56878e-06 postlayout=1 //x=640.78 \
 //y=1315.86
mXdut\/Xg1150__5107\/MM3 ( noxref_372 N_Xdut\/n_90_Xdut\/Xg1150__5107\/MM3_g \
 N_Xdut\/n_93_Xdut\/Xg1150__5107\/MM3_s N_VSS_CORE_Xpv0i_VSS_0\/M22_b ) n18 \
 l=1.8e-07 w=1.05e-06 ad=2.04916e-13 as=2.45082e-13 pd=1.45406e-06 \
 ps=1.5214e-06 postlayout=1 //x=641.48 //y=1315.86
mXdut\/Xg1150__5107\/MM4 ( N_VSS_CORE_Xdut\/Xg1150__5107\/MM4_d \
 N_Xdut\/n_78_Xdut\/Xg1150__5107\/MM4_g N_Xdut\/n_93_Xdut\/Xg1150__5107\/MM3_s \
 N_VSS_CORE_Xpv0i_VSS_0\/M22_b ) n18 l=1.88023e-07 w=1.13284e-06 \
 ad=4.08024e-13 as=2.64418e-13 pd=2.30686e-06 ps=1.64144e-06 postlayout=1 \
 //x=642.05 //y=1316.46
mXdut\/Xg1150__5107\/MM1 ( N_VSS_CORE_Xdut\/Xg1150__5107\/MM4_d \
 N_FE_PHN12_rst_pad_Xdut\/Xg1150__5107\/MM1_g \
 N_Xdut\/n_93_Xdut\/Xg1150__5107\/MM1_s N_VSS_CORE_Xpv0i_VSS_0\/M22_b ) n18 \
 l=1.8e-07 w=9.9e-07 ad=3.56576e-13 as=4.851e-13 pd=2.01598e-06 ps=2.96e-06 \
 postlayout=1 //x=642.87 //y=1315.86
mXpc3c01_clk_buf\/M10 ( N_Xpc3c01_clk_buf\/NODE_Xpc3c01_clk_buf\/M10_d \
 N_clk_pad_Xpc3c01_clk_buf\/M10_g N_VDD_CORE_Xpc3c01_clk_buf\/M10_s \
 N_VDD_CORE_Xpc3c01_clk_buf\/M10_b ) phv l=3.6e-07 w=2.35e-05 ad=9.635e-12 \
 as=1.457e-11 pd=2.432e-05 ps=4.824e-05 postlayout=1 //x=171.37 //y=448.25
mXpc3c01_clk_buf\/M12 ( N_Xpc3c01_clk_buf\/NODE_Xpc3c01_clk_buf\/M10_d \
 N_clk_pad_Xpc3c01_clk_buf\/M12_g N_VDD_CORE_Xpc3c01_clk_buf\/M12_s \
 N_VDD_CORE_Xpc3c01_clk_buf\/M10_b ) phv l=3.6e-07 w=2.35e-05 ad=9.635e-12 \
 as=1.457e-11 pd=2.432e-05 ps=4.824e-05 postlayout=1 //x=171.37 //y=449.43
mXpc3c01_clk_buf\/M4 ( N_clk_buf_Xpc3c01_clk_buf\/M4_d \
 N_Xpc3c01_clk_buf\/NODE_Xpc3c01_clk_buf\/M4_g \
 N_VDD_CORE_Xpc3c01_clk_buf\/M4_s N_VDD_CORE_Xpc3c01_clk_buf\/M4_b ) p18 \
 l=1.8e-07 w=3.234e-05 ad=1.617e-11 as=2.29614e-11 pd=3.334e-05 ps=6.61e-05 \
 postlayout=1 //x=208.38 //y=447.16
mXpc3c01_clk_buf\/M5 ( N_clk_buf_Xpc3c01_clk_buf\/M4_d \
 N_Xpc3c01_clk_buf\/NODE_Xpc3c01_clk_buf\/M5_g \
 N_VDD_CORE_Xpc3c01_clk_buf\/M5_s N_VDD_CORE_Xpc3c01_clk_buf\/M4_b ) p18 \
 l=1.8e-07 w=3.234e-05 ad=1.617e-11 as=1.617e-11 pd=3.334e-05 ps=3.334e-05 \
 postlayout=1 //x=208.38 //y=448.34
mXpc3c01_clk_buf\/M8 ( N_clk_buf_Xpc3c01_clk_buf\/M8_d \
 N_Xpc3c01_clk_buf\/NODE_Xpc3c01_clk_buf\/M8_g \
 N_VDD_CORE_Xpc3c01_clk_buf\/M5_s N_VDD_CORE_Xpc3c01_clk_buf\/M4_b ) p18 \
 l=1.8e-07 w=3.234e-05 ad=1.617e-11 as=1.617e-11 pd=3.334e-05 ps=3.334e-05 \
 postlayout=1 //x=208.38 //y=449.52
mXpc3c01_clk_buf\/M9 ( N_clk_buf_Xpc3c01_clk_buf\/M8_d \
 N_Xpc3c01_clk_buf\/NODE_Xpc3c01_clk_buf\/M9_g \
 N_VDD_CORE_Xpc3c01_clk_buf\/M9_s N_VDD_CORE_Xpc3c01_clk_buf\/M4_b ) p18 \
 l=1.8e-07 w=3.234e-05 ad=1.617e-11 as=2.29614e-11 pd=3.334e-05 ps=6.61e-05 \
 postlayout=1 //x=208.38 //y=450.7
mXdut\/Xg1180__1666\/MM8 ( N_VDD_CORE_Xdut\/Xg1180__1666\/MM8_d \
 N_Xdut\/FE_PHN14_b_reg_0_Xdut\/Xg1180__1666\/MM8_g noxref_373 \
 N_VDD_CORE_Xdut\/XFE_PHC67_a_pad_0\/MM7_b ) p18 l=1.8e-07 w=1.38e-06 \
 ad=1.0116e-12 as=3.312e-13 pd=5.2e-06 ps=1.86e-06 postlayout=1 //x=590.02 \
 //y=1343.36
mXdut\/Xg1180__1666\/MM7 ( N_Xdut\/n_59_Xdut\/Xg1180__1666\/MM7_d \
 N_Xdut\/FE_PHN15_a_reg_1_Xdut\/Xg1180__1666\/MM7_g noxref_373 \
 N_VDD_CORE_Xdut\/XFE_PHC67_a_pad_0\/MM7_b ) p18 l=1.8e-07 w=1.38e-06 \
 ad=3.864e-13 as=3.312e-13 pd=1.94e-06 ps=1.86e-06 postlayout=1 //x=590.68 \
 //y=1343.36
mXdut\/Xg1180__1666\/MM6 ( noxref_374 \
 N_Xdut\/FE_PHN16_a_reg_0_Xdut\/Xg1180__1666\/MM6_g \
 N_Xdut\/n_59_Xdut\/Xg1180__1666\/MM7_d \
 N_VDD_CORE_Xdut\/XFE_PHC67_a_pad_0\/MM7_b ) p18 l=1.8e-07 w=1.38e-06 \
 ad=1.932e-13 as=3.864e-13 pd=1.66e-06 ps=1.94e-06 postlayout=1 //x=591.42 \
 //y=1343.36
mXdut\/Xg1180__1666\/MM5 ( N_VDD_CORE_Xdut\/Xg1180__1666\/MM5_d \
 N_Xdut\/FE_PHN13_b_reg_1_Xdut\/Xg1180__1666\/MM5_g noxref_374 \
 N_VDD_CORE_Xdut\/XFE_PHC67_a_pad_0\/MM7_b ) p18 l=1.8e-07 w=1.38e-06 \
 ad=1.0116e-12 as=1.932e-13 pd=5.2e-06 ps=1.66e-06 postlayout=1 //x=591.88 \
 //y=1343.36
mXdut\/Xg1218\/MM2 ( N_Xdut\/n_34_Xdut\/Xg1218\/MM2_d \
 N_FE_PHN12_rst_pad_Xdut\/Xg1218\/MM2_g N_VDD_CORE_Xdut\/Xg1218\/MM2_s \
 N_VDD_CORE_Xdut\/XFE_PHC64_enable_s1\/MM7_b ) p18 l=1.8e-07 w=1.48e-06 \
 ad=7.252e-13 as=7.252e-13 pd=3.94e-06 ps=3.94e-06 postlayout=1 //x=592.45 \
 //y=1268.6
mXdut\/Xg2\/MM15 ( N_VDD_CORE_Xdut\/Xg2\/MM15_d \
 N_Xdut\/Xg2\/7_Xdut\/Xg2\/MM15_g N_Xdut\/n_122_Xdut\/Xg2\/MM15_s \
 N_VDD_CORE_Xdut\/Xg690__2883\/MM5_b ) p18 l=1.84538e-07 w=1.50213e-06 \
 ad=4.08986e-13 as=5.6385e-13 pd=2.06345e-06 ps=3.77213e-06 postlayout=1 \
 //x=622.47 //y=1097.76
mXdut\/Xg2\/MM14 ( N_VDD_CORE_Xdut\/Xg2\/MM15_d \
 N_Xdut\/Xg2\/8_Xdut\/Xg2\/MM14_g N_Xdut\/Xg2\/13_Xdut\/Xg2\/MM14_s \
 N_VDD_CORE_Xdut\/Xg690__2883\/MM5_b ) p18 l=1.84254e-07 w=1.60213e-06 \
 ad=4.36214e-13 as=3.63626e-13 pd=2.20082e-06 ps=2.09672e-06 postlayout=1 \
 //x=623.18 //y=1097.19
mXdut\/Xg2\/MM16 ( N_Xdut\/Xg2\/13_Xdut\/Xg2\/MM14_s \
 N_Xdut\/Xg2\/2_Xdut\/Xg2\/MM16_g N_Xdut\/Xg2\/7_Xdut\/Xg2\/MM16_s \
 N_VDD_CORE_Xdut\/Xg690__2883\/MM5_b ) p18 l=1.8e-07 w=1.54e-06 ad=3.49524e-13 \
 as=4.312e-13 pd=2.01541e-06 ps=2.1e-06 postlayout=1 //x=623.92 //y=1097.19
mXdut\/Xg2\/MM12 ( N_Xdut\/Xg2\/7_Xdut\/Xg2\/MM16_s \
 N_Xdut\/Xg2\/10_Xdut\/Xg2\/MM12_g N_Xdut\/Xg2\/8_Xdut\/Xg2\/MM12_s \
 N_VDD_CORE_Xdut\/Xg690__2883\/MM5_b ) p18 l=1.8e-07 w=1.54e-06 ad=4.312e-13 \
 as=3.43032e-13 pd=2.1e-06 ps=2.00438e-06 postlayout=1 //x=624.66 //y=1097.19
mXdut\/Xg1177__2883\/MM5 ( N_VDD_CORE_Xdut\/Xg1177__2883\/MM5_d \
 N_Xdut\/n_61_Xdut\/Xg1177__2883\/MM5_g N_Xdut\/n_63_Xdut\/Xg1177__2883\/MM5_s \
 N_VDD_CORE_Xdut\/XFE_PHC117_n_64\/MM7_b ) p18 l=1.85195e-07 w=1.31213e-06 \
 ad=8.8925e-13 as=4.57647e-13 pd=4.91213e-06 ps=2.04773e-06 postlayout=1 \
 //x=624.62 //y=1325.27
mXdut\/Xg2\/MM13 ( N_VDD_CORE_Xdut\/Xg2\/MM13_d \
 N_Xdut\/add_89_32_n_31_Xdut\/Xg2\/MM13_g N_Xdut\/Xg2\/8_Xdut\/Xg2\/MM12_s \
 N_VDD_CORE_Xdut\/Xg690__2883\/MM5_b ) p18 l=1.84797e-07 w=1.61042e-06 \
 ad=6.3305e-13 as=3.58718e-13 pd=3.96042e-06 ps=2.09603e-06 postlayout=1 \
 //x=625.23 //y=1097.87
mXdut\/Xg1177__2883\/MM6 ( noxref_375 N_Xdut\/n_33_Xdut\/Xg1177__2883\/MM6_g \
 N_Xdut\/n_63_Xdut\/Xg1177__2883\/MM5_s \
 N_VDD_CORE_Xdut\/XFE_PHC117_n_64\/MM7_b ) p18 l=1.8e-07 w=1.31e-06 \
 ad=1.834e-13 as=4.56903e-13 pd=1.59e-06 ps=2.0444e-06 postlayout=1 //x=625.58 \
 //y=1324.64
mXdut\/Xg1177__2883\/MM4 ( noxref_375 N_Xdut\/n_58_Xdut\/Xg1177__2883\/MM4_g \
 N_VDD_CORE_Xdut\/Xg1177__2883\/MM4_s N_VDD_CORE_Xdut\/XFE_PHC117_n_64\/MM7_b \
 ) p18 l=1.8e-07 w=1.31e-06 ad=1.834e-13 as=9.5e-13 pd=1.59e-06 ps=4.94e-06 \
 postlayout=1 //x=626.04 //y=1324.64
mXdut\/Xg2\/MM22 ( N_Xdut\/Xg2\/10_Xdut\/Xg2\/MM22_d \
 N_Xdut\/Xg2\/2_Xdut\/Xg2\/MM22_g N_VDD_CORE_Xdut\/Xg2\/MM22_s \
 N_VDD_CORE_Xdut\/Xg690__2883\/MM5_b ) p18 l=1.8e-07 w=6.4e-07 ad=3.136e-13 \
 as=3.40464e-13 pd=2.26e-06 ps=1.79358e-06 postlayout=1 //x=626.67 //y=1097.12
mXdut\/Xg2\/MM20 ( N_Xdut\/Xg2\/14_Xdut\/Xg2\/MM20_d \
 N_Xdut\/Xg2\/4_Xdut\/Xg2\/MM20_g N_VDD_CORE_Xdut\/Xg2\/MM22_s \
 N_VDD_CORE_Xdut\/Xg690__2883\/MM5_b ) p18 l=1.8e-07 w=9.8e-07 ad=2.744e-13 \
 as=5.21336e-13 pd=1.54e-06 ps=2.74642e-06 postlayout=1 //x=627.47 //y=1097.12
mXdut\/Xg2\/MM17 ( N_Xdut\/Xg2\/14_Xdut\/Xg2\/MM20_d \
 N_Xdut\/Xg2\/6_Xdut\/Xg2\/MM17_g N_Xdut\/Xg2\/2_Xdut\/Xg2\/MM17_s \
 N_VDD_CORE_Xdut\/Xg690__2883\/MM5_b ) p18 l=1.8e-07 w=9.8e-07 ad=2.744e-13 \
 as=2.744e-13 pd=1.54e-06 ps=1.54e-06 postlayout=1 //x=628.21 //y=1097.12
mXdut\/Xg2\/MM19 ( N_Xdut\/Xg2\/2_Xdut\/Xg2\/MM17_s \
 N_mac_out_pad\[15\]_Xdut\/Xg2\/MM19_g N_Xdut\/Xg2\/4_Xdut\/Xg2\/MM19_s \
 N_VDD_CORE_Xdut\/Xg690__2883\/MM5_b ) p18 l=1.8e-07 w=9.8e-07 ad=2.744e-13 \
 as=2.3328e-13 pd=1.54e-06 ps=1.45979e-06 postlayout=1 //x=628.95 //y=1097.12
mXdut\/Xg2\/MM21 ( N_VDD_CORE_Xdut\/Xg2\/MM21_d \
 N_Xdut\/FE_PHN63_mult_reg_7_Xdut\/Xg2\/MM21_g \
 N_Xdut\/Xg2\/4_Xdut\/Xg2\/MM19_s N_VDD_CORE_Xdut\/Xg690__2883\/MM5_b ) p18 \
 l=1.86541e-07 w=1.04213e-06 ad=2.78013e-13 as=2.4807e-13 pd=1.62449e-06 \
 ps=1.55234e-06 postlayout=1 //x=629.55 //y=1097.66
mXdut\/Xg2\/MM18 ( N_Xdut\/Xg2\/6_Xdut\/Xg2\/MM18_d \
 N_mac_out_pad\[15\]_Xdut\/Xg2\/MM18_g N_VDD_CORE_Xdut\/Xg2\/MM21_d \
 N_VDD_CORE_Xdut\/Xg690__2883\/MM5_b ) p18 l=1.8e-07 w=9.8e-07 ad=4.802e-13 \
 as=2.61437e-13 pd=2.94e-06 ps=1.52764e-06 postlayout=1 //x=630.37 //y=1097.12
mXdut\/Xg2__9945\/MM7 ( N_Xdut\/n_33_Xdut\/Xg2__9945\/MM7_d \
 N_Xdut\/Xg2__9945\/3_Xdut\/Xg2__9945\/MM7_g N_VDD_CORE_Xdut\/Xg2__9945\/MM7_s \
 N_VDD_CORE_Xdut\/XFE_PHC67_a_pad_0\/MM7_b ) p18 l=1.84888e-07 w=1.58042e-06 \
 ad=6.1835e-13 as=4.97037e-13 pd=3.90042e-06 ps=2.73489e-06 postlayout=1 \
 //x=631.86 //y=1346.49
mXdut\/Xg2__9945\/MM8 ( N_VDD_CORE_Xdut\/Xg2__9945\/MM7_s \
 N_Xdut\/FE_PHN100_a_reg_3_Xdut\/Xg2__9945\/MM8_g \
 N_Xdut\/Xg2__9945\/3_Xdut\/Xg2__9945\/MM8_s \
 N_VDD_CORE_Xdut\/XFE_PHC67_a_pad_0\/MM7_b ) p18 l=1.8e-07 w=8.7e-07 \
 ad=2.73613e-13 as=2.436e-13 pd=1.50552e-06 ps=1.43e-06 postlayout=1 //x=632.7 \
 //y=1347.13
mXdut\/Xg2__9945\/MM5 ( N_VDD_CORE_Xdut\/Xg2__9945\/MM5_d \
 N_Xdut\/Xg2__9945\/5_Xdut\/Xg2__9945\/MM5_g \
 N_Xdut\/Xg2__9945\/3_Xdut\/Xg2__9945\/MM8_s \
 N_VDD_CORE_Xdut\/XFE_PHC67_a_pad_0\/MM7_b ) p18 l=1.8e-07 w=8.7e-07 \
 ad=3.86187e-13 as=2.436e-13 pd=2.14872e-06 ps=1.43e-06 postlayout=1 \
 //x=633.44 //y=1347.13
mXdut\/Xg2__9945\/MM6 ( N_Xdut\/Xg2__9945\/5_Xdut\/Xg2__9945\/MM6_d \
 N_Xdut\/FE_PHN13_b_reg_1_Xdut\/Xg2__9945\/MM6_g \
 N_VDD_CORE_Xdut\/Xg2__9945\/MM5_d N_VDD_CORE_Xdut\/XFE_PHC67_a_pad_0\/MM7_b ) \
 p18 l=1.8e-07 w=6.2e-07 ad=3.038e-13 as=2.75213e-13 pd=2.22e-06 \
 ps=1.53128e-06 postlayout=1 //x=634.24 //y=1347.38
mXdut\/Xg1150__5107\/MM6 ( N_noxref_241_Xdut\/Xg1150__5107\/MM6_d \
 N_Xdut\/n_76_Xdut\/Xg1150__5107\/MM6_g N_VDD_CORE_Xdut\/Xg1150__5107\/MM6_s \
 N_VDD_CORE_Xdut\/XFE_PHC32_n_25\/MM7_b ) p18 l=1.86834e-07 w=1.13042e-06 \
 ad=4.2845e-13 as=2.69538e-13 pd=3.00042e-06 ps=1.6724e-06 postlayout=1 \
 //x=640.78 //y=1313.13
mXdut\/Xg1150__5107\/MM7 ( N_noxref_241_Xdut\/Xg1150__5107\/MM7_d \
 N_Xdut\/n_90_Xdut\/Xg1150__5107\/MM7_g N_VDD_CORE_Xdut\/Xg1150__5107\/MM6_s \
 N_VDD_CORE_Xdut\/XFE_PHC32_n_25\/MM7_b ) p18 l=1.86074e-07 w=1.12213e-06 \
 ad=3.67212e-13 as=2.67562e-13 pd=2.00856e-06 ps=1.66015e-06 postlayout=1 \
 //x=641.51 //y=1313.63
mXdut\/Xg1150__5107\/MM8 ( noxref_376 N_Xdut\/n_78_Xdut\/Xg1150__5107\/MM8_g \
 N_noxref_241_Xdut\/Xg1150__5107\/MM7_d N_VDD_CORE_Xdut\/XFE_PHC32_n_25\/MM7_b \
 ) p18 l=1.84733e-07 w=1.53627e-06 ad=3.082e-13 as=5.02738e-13 pd=1.97627e-06 \
 ps=2.74985e-06 postlayout=1 //x=642.25 //y=1314.2
mXdut\/Xg1150__5107\/MM5 ( noxref_376 \
 N_FE_PHN12_rst_pad_Xdut\/Xg1150__5107\/MM5_g \
 N_Xdut\/n_93_Xdut\/Xg1150__5107\/MM5_s N_VDD_CORE_Xdut\/XFE_PHC32_n_25\/MM7_b \
 ) p18 l=1.84733e-07 w=1.53627e-06 ad=3.082e-13 as=5.987e-13 pd=1.97627e-06 \
 ps=3.82627e-06 postlayout=1 //x=642.87 //y=1314.13
dXpc3c01_clk_buf\/D1 ( N_VSS_CORE_Xpv0i_VSS_0\/M22_b \
 N_clk_pad_Xpc3c01_clk_buf\/D1_neg ) dn18  area=4.624e-13 pj=2.72e-06 \
 //x=141.57 //y=467.56
mXpv0i_VSS_0\/M18 ( N_VDD_CORE_Xpv0i_VSS_0\/M19_d \
 N_Xpv0i_VSS_0\/U31_U18_r1_Xpv0i_VSS_0\/M18_g N_VSS_CORE_Xpv0i_VSS_0\/M25_s \
 N_VSS_CORE_Xpv0i_VSS_0\/M22_b ) n18 l=2.5e-07 w=3e-05 ad=1.083e-10 \
 as=2.58e-11 pd=3.722e-05 ps=3.172e-05 postlayout=1 //x=95.67 //y=932.025
mXpv0i_VSS_0\/M19 ( N_VDD_CORE_Xpv0i_VSS_0\/M19_d \
 N_Xpv0i_VSS_0\/U31_U18_r1_Xpv0i_VSS_0\/M19_g N_VSS_CORE_Xpv0i_VSS_0\/M19_s \
 N_VSS_CORE_Xpv0i_VSS_0\/M22_b ) n18 l=2.5e-07 w=3e-05 ad=1.083e-10 \
 as=3.99e-11 pd=3.722e-05 ps=6.266e-05 postlayout=1 //x=95.67 //y=939.495
mXpv0i_VSS_0\/M20 ( N_VDD_CORE_Xpv0i_VSS_0\/M21_d \
 N_Xpv0i_VSS_0\/U31_U18_r1_Xpv0i_VSS_0\/M20_g N_VSS_CORE_Xpv0i_VSS_0\/M20_s \
 N_VSS_CORE_Xpv0i_VSS_0\/M22_b ) n18 l=2.5e-07 w=3e-05 ad=1.083e-10 \
 as=3.99e-11 pd=3.722e-05 ps=6.266e-05 postlayout=1 //x=95.67 //y=884.825
mXpv0i_VSS_0\/M21 ( N_VDD_CORE_Xpv0i_VSS_0\/M21_d \
 N_Xpv0i_VSS_0\/U31_U18_r1_Xpv0i_VSS_0\/M21_g N_VSS_CORE_Xpv0i_VSS_0\/M26_s \
 N_VSS_CORE_Xpv0i_VSS_0\/M22_b ) n18 l=2.5e-07 w=3e-05 ad=1.083e-10 \
 as=2.58e-11 pd=3.722e-05 ps=3.172e-05 postlayout=1 //x=95.67 //y=892.295
XXpv0i_VSS_0\/R1 (  N_VDD_CORE_Xpv0i_VSS_0\/R1_pos \
 N_X61\/noxref_5_Xpv0i_VSS_0\/R1_neg ) rnwellsti2t r=8253.06 w=2.1e-06 \
 l=1.46e-05  //x=206.77 //y=941.555
XXpv0i_VSS_0\/R2 (  N_X61\/noxref_5_Xpv0i_VSS_0\/R2_pos \
 N_Xpv0i_VSS_0\/U33_U31_r2_Xpv0i_VSS_0\/R2_neg ) rnwellsti2t r=8253.06 \
 w=2.1e-06 l=1.46e-05  //x=226.83 //y=941.555
XXpv0i_VSS_0\/R15 (  N_Xpv0i_VSS_0\/U31_U18_r1_Xpv0i_VSS_0\/R15_pos \
 N_X61\/noxref_8_Xpv0i_VSS_0\/R15_neg ) rnwellsti2t r=8253.06 w=2.1e-06 \
 l=1.46e-05  //x=206.77 //y=884.415
XXpv0i_VSS_0\/R16 (  N_X61\/noxref_8_Xpv0i_VSS_0\/R16_pos \
 N_VSS_CORE_Xpv0i_VSS_0\/R16_neg ) rnwellsti2t r=8253.06 w=2.1e-06 l=1.46e-05  \
 //x=226.83 //y=884.415
mXpv0i_VSS_0\/M22 ( N_VDD_CORE_Xpv0i_VSS_0\/M22_d \
 N_Xpv0i_VSS_0\/U31_U18_r1_Xpv0i_VSS_0\/M22_g N_VSS_CORE_Xpv0i_VSS_0\/M22_s \
 N_VSS_CORE_Xpv0i_VSS_0\/M22_b ) n18 l=2.5e-07 w=3e-05 ad=1.083e-10 \
 as=2.58e-11 pd=3.722e-05 ps=3.172e-05 postlayout=1 //x=125.67 //y=912.895
mXpv0i_VSS_0\/M23 ( N_VDD_CORE_Xpv0i_VSS_0\/M22_d \
 N_Xpv0i_VSS_0\/U31_U18_r1_Xpv0i_VSS_0\/M23_g N_VSS_CORE_Xpv0i_VSS_0\/M23_s \
 N_VSS_CORE_Xpv0i_VSS_0\/M22_b ) n18 l=2.5e-07 w=3e-05 ad=1.083e-10 \
 as=2.58e-11 pd=3.722e-05 ps=3.172e-05 postlayout=1 //x=125.67 //y=920.365
mXpv0i_VSS_0\/M24 ( N_VDD_CORE_Xpv0i_VSS_0\/M24_d \
 N_Xpv0i_VSS_0\/U31_U18_r1_Xpv0i_VSS_0\/M24_g N_VSS_CORE_Xpv0i_VSS_0\/M23_s \
 N_VSS_CORE_Xpv0i_VSS_0\/M22_b ) n18 l=2.5e-07 w=3e-05 ad=1.083e-10 \
 as=2.58e-11 pd=3.722e-05 ps=3.172e-05 postlayout=1 //x=125.67 //y=922.335
mXpv0i_VSS_0\/M25 ( N_VDD_CORE_Xpv0i_VSS_0\/M24_d \
 N_Xpv0i_VSS_0\/U31_U18_r1_Xpv0i_VSS_0\/M25_g N_VSS_CORE_Xpv0i_VSS_0\/M25_s \
 N_VSS_CORE_Xpv0i_VSS_0\/M22_b ) n18 l=2.5e-07 w=3e-05 ad=1.083e-10 \
 as=2.58e-11 pd=3.722e-05 ps=3.172e-05 postlayout=1 //x=125.67 //y=929.805
mXpv0i_VSS_0\/M26 ( N_VDD_CORE_Xpv0i_VSS_0\/M26_d \
 N_Xpv0i_VSS_0\/U31_U18_r1_Xpv0i_VSS_0\/M26_g N_VSS_CORE_Xpv0i_VSS_0\/M26_s \
 N_VSS_CORE_Xpv0i_VSS_0\/M22_b ) n18 l=2.5e-07 w=3e-05 ad=1.083e-10 \
 as=2.58e-11 pd=3.722e-05 ps=3.172e-05 postlayout=1 //x=125.67 //y=894.015
mXpv0i_VSS_0\/M27 ( N_VDD_CORE_Xpv0i_VSS_0\/M26_d \
 N_Xpv0i_VSS_0\/U31_U18_r1_Xpv0i_VSS_0\/M27_g N_VSS_CORE_Xpv0i_VSS_0\/M27_s \
 N_VSS_CORE_Xpv0i_VSS_0\/M22_b ) n18 l=2.5e-07 w=3e-05 ad=1.083e-10 \
 as=2.58e-11 pd=3.722e-05 ps=3.172e-05 postlayout=1 //x=125.67 //y=901.485
mXpv0i_VSS_0\/M28 ( N_VDD_CORE_Xpv0i_VSS_0\/M28_d \
 N_Xpv0i_VSS_0\/U31_U18_r1_Xpv0i_VSS_0\/M28_g N_VSS_CORE_Xpv0i_VSS_0\/M27_s \
 N_VSS_CORE_Xpv0i_VSS_0\/M22_b ) n18 l=2.5e-07 w=3e-05 ad=1.083e-10 \
 as=2.58e-11 pd=3.722e-05 ps=3.172e-05 postlayout=1 //x=125.67 //y=903.455
mXpv0i_VSS_0\/M29 ( N_VDD_CORE_Xpv0i_VSS_0\/M28_d \
 N_Xpv0i_VSS_0\/U31_U18_r1_Xpv0i_VSS_0\/M29_g N_VSS_CORE_Xpv0i_VSS_0\/M22_s \
 N_VSS_CORE_Xpv0i_VSS_0\/M22_b ) n18 l=2.5e-07 w=3e-05 ad=1.083e-10 \
 as=2.58e-11 pd=3.722e-05 ps=3.172e-05 postlayout=1 //x=125.67 //y=910.925
mXpv0i_VSS_0\/M3 ( N_VSS_CORE_Xpv0i_VSS_0\/M3_d \
 N_Xpv0i_VSS_0\/U33_U31_r2_Xpv0i_VSS_0\/M3_g N_VDD_CORE_Xpv0i_VSS_0\/M3_s \
 N_VDD_CORE_Xpv0i_VSS_0\/M3_b ) p18 l=2.5e-07 w=4e-05 ad=1.008e-10 as=5.48e-11 \
 pd=4.504e-05 ps=8.274e-05 postlayout=1 //x=203.29 //y=932.035
mXpv0i_VSS_0\/M4 ( N_VSS_CORE_Xpv0i_VSS_0\/M3_d \
 N_Xpv0i_VSS_0\/U33_U31_r2_Xpv0i_VSS_0\/M4_g N_VDD_CORE_Xpv0i_VSS_0\/M4_s \
 N_VDD_CORE_Xpv0i_VSS_0\/M3_b ) p18 l=2.5e-07 w=4e-05 ad=1.008e-10 as=3.44e-11 \
 pd=4.504e-05 ps=4.172e-05 postlayout=1 //x=208.58 //y=932.035
mXpv0i_VSS_0\/M5 ( N_VSS_CORE_Xpv0i_VSS_0\/M5_d \
 N_Xpv0i_VSS_0\/U33_U31_r2_Xpv0i_VSS_0\/M5_g N_VDD_CORE_Xpv0i_VSS_0\/M4_s \
 N_VDD_CORE_Xpv0i_VSS_0\/M3_b ) p18 l=2.5e-07 w=4e-05 ad=1.008e-10 as=3.44e-11 \
 pd=4.504e-05 ps=4.172e-05 postlayout=1 //x=210.55 //y=932.035
mXpv0i_VSS_0\/M6 ( N_VSS_CORE_Xpv0i_VSS_0\/M5_d \
 N_Xpv0i_VSS_0\/U33_U31_r2_Xpv0i_VSS_0\/M6_g N_VDD_CORE_Xpv0i_VSS_0\/M6_s \
 N_VDD_CORE_Xpv0i_VSS_0\/M3_b ) p18 l=2.5e-07 w=4e-05 ad=1.008e-10 as=3.44e-11 \
 pd=4.504e-05 ps=4.172e-05 postlayout=1 //x=215.84 //y=932.035
mXpv0i_VSS_0\/M7 ( N_VSS_CORE_Xpv0i_VSS_0\/M7_d \
 N_Xpv0i_VSS_0\/U33_U31_r2_Xpv0i_VSS_0\/M7_g N_VDD_CORE_Xpv0i_VSS_0\/M6_s \
 N_VDD_CORE_Xpv0i_VSS_0\/M3_b ) p18 l=2.5e-07 w=4e-05 ad=1.008e-10 as=3.44e-11 \
 pd=4.504e-05 ps=4.172e-05 postlayout=1 //x=217.81 //y=932.035
mXpv0i_VSS_0\/M8 ( N_VSS_CORE_Xpv0i_VSS_0\/M7_d \
 N_Xpv0i_VSS_0\/U33_U31_r2_Xpv0i_VSS_0\/M8_g N_VDD_CORE_Xpv0i_VSS_0\/M8_s \
 N_VDD_CORE_Xpv0i_VSS_0\/M3_b ) p18 l=2.5e-07 w=4e-05 ad=1.008e-10 as=3.44e-11 \
 pd=4.504e-05 ps=4.172e-05 postlayout=1 //x=223.1 //y=932.035
mXpv0i_VSS_0\/M9 ( N_VSS_CORE_Xpv0i_VSS_0\/M9_d \
 N_Xpv0i_VSS_0\/U33_U31_r2_Xpv0i_VSS_0\/M9_g N_VDD_CORE_Xpv0i_VSS_0\/M8_s \
 N_VDD_CORE_Xpv0i_VSS_0\/M3_b ) p18 l=2.5e-07 w=4e-05 ad=1.008e-10 as=3.44e-11 \
 pd=4.504e-05 ps=4.172e-05 postlayout=1 //x=225.07 //y=932.035
mXpv0i_VSS_0\/M10 ( N_VSS_CORE_Xpv0i_VSS_0\/M9_d \
 N_Xpv0i_VSS_0\/U33_U31_r2_Xpv0i_VSS_0\/M10_g N_VDD_CORE_Xpv0i_VSS_0\/M10_s \
 N_VDD_CORE_Xpv0i_VSS_0\/M3_b ) p18 l=2.5e-07 w=4e-05 ad=1.008e-10 as=3.44e-11 \
 pd=4.504e-05 ps=4.172e-05 postlayout=1 //x=230.36 //y=932.035
mXpv0i_VSS_0\/M11 ( N_VSS_CORE_Xpv0i_VSS_0\/M11_d \
 N_Xpv0i_VSS_0\/U33_U31_r2_Xpv0i_VSS_0\/M11_g N_VDD_CORE_Xpv0i_VSS_0\/M10_s \
 N_VDD_CORE_Xpv0i_VSS_0\/M3_b ) p18 l=2.5e-07 w=4e-05 ad=1.008e-10 as=3.44e-11 \
 pd=4.504e-05 ps=4.172e-05 postlayout=1 //x=232.33 //y=932.035
mXpv0i_VSS_0\/M12 ( N_VSS_CORE_Xpv0i_VSS_0\/M11_d \
 N_Xpv0i_VSS_0\/U33_U31_r2_Xpv0i_VSS_0\/M12_g N_VDD_CORE_Xpv0i_VSS_0\/M12_s \
 N_VDD_CORE_Xpv0i_VSS_0\/M3_b ) p18 l=2.5e-07 w=4e-05 ad=1.008e-10 as=3.44e-11 \
 pd=4.504e-05 ps=4.172e-05 postlayout=1 //x=237.62 //y=932.035
mXpv0i_VSS_0\/M13 ( N_VSS_CORE_Xpv0i_VSS_0\/M13_d \
 N_Xpv0i_VSS_0\/U33_U31_r2_Xpv0i_VSS_0\/M13_g N_VDD_CORE_Xpv0i_VSS_0\/M12_s \
 N_VDD_CORE_Xpv0i_VSS_0\/M3_b ) p18 l=2.5e-07 w=4e-05 ad=1.008e-10 as=3.44e-11 \
 pd=4.504e-05 ps=4.172e-05 postlayout=1 //x=239.59 //y=932.035
mXpv0i_VSS_0\/M14 ( N_VSS_CORE_Xpv0i_VSS_0\/M13_d \
 N_Xpv0i_VSS_0\/U33_U31_r2_Xpv0i_VSS_0\/M14_g N_VDD_CORE_Xpv0i_VSS_0\/M14_s \
 N_VDD_CORE_Xpv0i_VSS_0\/M3_b ) p18 l=2.5e-07 w=4e-05 ad=1.008e-10 as=5.48e-11 \
 pd=4.504e-05 ps=8.274e-05 postlayout=1 //x=244.88 //y=932.035
dXpv0a_VSSO_3\/D31\@2 ( N_VSSO_CORE_Xpv0a_VSSO_3\/D31\@2_pos \
 N_VSS_CORE_Xpv0a_VSSO_3\/D31\@2_neg ) dph  area=1.331e-11 pj=2.862e-05 \
 //x=140.57 //y=938.415
dXpv0a_VSSO_3\/D31\@3 ( N_VSSO_CORE_Xpv0a_VSSO_3\/D31\@3_pos \
 N_VSS_CORE_Xpv0a_VSSO_3\/D31\@2_neg ) dph  area=1.331e-11 pj=2.862e-05 \
 //x=140.57 //y=935.615
dXpv0a_VSSO_3\/D31\@4 ( N_VSSO_CORE_Xpv0a_VSSO_3\/D31\@4_pos \
 N_VSS_CORE_Xpv0a_VSSO_3\/D31\@2_neg ) dph  area=1.331e-11 pj=2.862e-05 \
 //x=140.57 //y=932.815
dXpv0a_VSSO_3\/D31\@5 ( N_VSSO_CORE_Xpv0a_VSSO_3\/D31\@5_pos \
 N_VSS_CORE_Xpv0a_VSSO_3\/D31\@2_neg ) dph  area=1.331e-11 pj=2.862e-05 \
 //x=140.57 //y=930.015
dXpv0a_VSSO_3\/D31\@6 ( N_VSSO_CORE_Xpv0a_VSSO_3\/D31\@6_pos \
 N_VSS_CORE_Xpv0a_VSSO_3\/D31\@2_neg ) dph  area=1.331e-11 pj=2.862e-05 \
 //x=140.57 //y=927.215
dXpv0a_VSSO_3\/D31\@7 ( N_VSSO_CORE_Xpv0a_VSSO_3\/D31\@7_pos \
 N_VSS_CORE_Xpv0a_VSSO_3\/D31\@2_neg ) dph  area=1.331e-11 pj=2.862e-05 \
 //x=140.57 //y=924.415
dXpv0a_VSSO_3\/D31\@8 ( N_VSSO_CORE_Xpv0a_VSSO_3\/D31\@8_pos \
 N_VSS_CORE_Xpv0a_VSSO_3\/D31\@2_neg ) dph  area=1.331e-11 pj=2.862e-05 \
 //x=140.57 //y=921.615
dXpv0a_VSSO_3\/D31\@9 ( N_VSSO_CORE_Xpv0a_VSSO_3\/D31\@9_pos \
 N_VSS_CORE_Xpv0a_VSSO_3\/D31\@2_neg ) dph  area=1.331e-11 pj=2.862e-05 \
 //x=140.57 //y=918.815
dXpvdi_VDD_0\/D30 ( N_VSSO_CORE_Xpvdi_VDD_0\/D30_pos \
 N_VSS_CORE_Xpv0a_VSSO_3\/D31\@2_neg ) dph  area=1.331e-11 pj=2.862e-05 \
 //x=140.57 //y=916.015
dXpv0a_VSSO_3\/D30\@2 ( N_VSS_CORE_Xpv0a_VSSO_3\/D30\@2_pos \
 N_VSSO_CORE_Xpv0a_VSSO_3\/D30\@2_neg ) dph  area=1.331e-11 pj=2.862e-05 \
 //x=140.57 //y=909.075
dXpv0a_VSSO_3\/D30\@3 ( N_VSS_CORE_Xpv0a_VSSO_3\/D30\@3_pos \
 N_VSSO_CORE_Xpv0a_VSSO_3\/D30\@2_neg ) dph  area=1.331e-11 pj=2.862e-05 \
 //x=140.57 //y=906.275
dXpv0a_VSSO_3\/D30\@4 ( N_VSS_CORE_Xpv0a_VSSO_3\/D30\@4_pos \
 N_VSSO_CORE_Xpv0a_VSSO_3\/D30\@2_neg ) dph  area=1.331e-11 pj=2.862e-05 \
 //x=140.57 //y=903.475
dXpv0a_VSSO_3\/D30\@5 ( N_VSS_CORE_Xpv0a_VSSO_3\/D30\@5_pos \
 N_VSSO_CORE_Xpv0a_VSSO_3\/D30\@2_neg ) dph  area=1.331e-11 pj=2.862e-05 \
 //x=140.57 //y=900.675
dXpv0a_VSSO_3\/D30\@6 ( N_VSS_CORE_Xpv0a_VSSO_3\/D30\@6_pos \
 N_VSSO_CORE_Xpv0a_VSSO_3\/D30\@2_neg ) dph  area=1.331e-11 pj=2.862e-05 \
 //x=140.57 //y=897.875
dXpv0a_VSSO_3\/D30\@7 ( N_VSS_CORE_Xpv0a_VSSO_3\/D30\@7_pos \
 N_VSSO_CORE_Xpv0a_VSSO_3\/D30\@2_neg ) dph  area=1.331e-11 pj=2.862e-05 \
 //x=140.57 //y=895.075
dXpv0a_VSSO_3\/D30\@8 ( N_VSS_CORE_Xpv0a_VSSO_3\/D30\@8_pos \
 N_VSSO_CORE_Xpv0a_VSSO_3\/D30\@2_neg ) dph  area=1.331e-11 pj=2.862e-05 \
 //x=140.57 //y=892.275
dXpv0a_VSSO_3\/D30\@9 ( N_VSS_CORE_Xpv0a_VSSO_3\/D30\@9_pos \
 N_VSSO_CORE_Xpv0a_VSSO_3\/D30\@2_neg ) dph  area=1.331e-11 pj=2.862e-05 \
 //x=140.57 //y=889.475
dXpvdi_VDD_0\/D31 ( N_VSS_CORE_Xpvdi_VDD_0\/D31_pos \
 N_VSSO_CORE_Xpv0a_VSSO_3\/D30\@2_neg ) dph  area=1.331e-11 pj=2.862e-05 \
 //x=140.57 //y=886.675
XXpv0i_VSS_0\/C8_1 ( N_VDD_CORE_Xpv0i_VSS_0\/C8_1_pos \
 N_Xpv0i_VSS_0\/U31_U18_r1_Xpv0i_VSS_0\/C8_1_neg ) nwcaph2t  l=1.513e-05 \
 w=1.513e-05 //x=170.895 //y=901.175
mXpv0i_VSS_2\/M18 ( N_VDD_CORE_Xpv0i_VSS_2\/M19_d \
 N_Xpv0i_VSS_2\/U31_U18_r1_Xpv0i_VSS_2\/M18_g N_VSS_CORE_Xpv0i_VSS_2\/M25_s \
 N_VSS_CORE_Xpv0i_VSS_0\/M22_b ) n18 l=2.5e-07 w=3e-05 ad=1.083e-10 \
 as=2.58e-11 pd=3.722e-05 ps=3.172e-05 postlayout=1 //x=892.065 //y=95.67
mXpv0i_VSS_2\/M19 ( N_VDD_CORE_Xpv0i_VSS_2\/M19_d \
 N_Xpv0i_VSS_2\/U31_U18_r1_Xpv0i_VSS_2\/M19_g N_VSS_CORE_Xpv0i_VSS_2\/M19_s \
 N_VSS_CORE_Xpv0i_VSS_0\/M22_b ) n18 l=2.5e-07 w=3e-05 ad=1.083e-10 \
 as=3.99e-11 pd=3.722e-05 ps=6.266e-05 postlayout=1 //x=884.595 //y=95.67
mXpv0i_VSS_2\/M20 ( N_VDD_CORE_Xpv0i_VSS_2\/M21_d \
 N_Xpv0i_VSS_2\/U31_U18_r1_Xpv0i_VSS_2\/M20_g N_VSS_CORE_Xpv0i_VSS_2\/M20_s \
 N_VSS_CORE_Xpv0i_VSS_0\/M22_b ) n18 l=2.5e-07 w=3e-05 ad=1.083e-10 \